@<TRIPOS>MOLECULE
temp/c=cc1ccccc1_c=c_15.pdb
 172 179 0 0 0
SMALL
GASTEIGER

@<TRIPOS>ATOM
      1 C          -6.9417   -5.5384    8.2141 C.3     1  UNL1       -0.0584
      2 C          -7.0179   -5.7605    6.6937 C.3     1  UNL1       -0.0187
      3 C          -5.8144   -6.4762    6.0873 C.ar    1  UNL1       -0.0445
      4 C          -4.6860   -6.8394    6.8424 C.ar    1  UNL1       -0.0583
      5 C          -3.6209   -7.5339    6.2631 C.ar    1  UNL1       -0.0615
      6 C          -3.6604   -7.8754    4.9156 C.ar    1  UNL1       -0.0617
      7 C          -4.7600   -7.5135    4.1441 C.ar    1  UNL1       -0.0615
      8 C          -5.8289   -6.8263    4.7255 C.ar    1  UNL1       -0.0583
      9 H          -6.7366   -6.4749    8.7447 H       1  UNL1        0.0236
     10 H          -7.8932   -5.1541    8.5966 H       1  UNL1        0.0236
     11 H          -7.8537   -6.4613    6.5484 H       1  UNL1        0.0346
     12 H          -4.6045   -6.5823    7.8947 H       1  UNL1        0.0620
     13 H          -2.7617   -7.8086    6.8690 H       1  UNL1        0.0618
     14 H          -2.8356   -8.4227    4.4677 H       1  UNL1        0.0618
     15 H          -4.7909   -7.7707    3.0888 H       1  UNL1        0.0618
     16 H          -6.6788   -6.5679    4.0978 H       1  UNL1        0.0620
     17 H          -6.1553   -4.8270    8.4886 H       1  UNL1        0.0236
     18 C          -7.4247   -4.4498    5.9642 C.3     1  UNL1       -0.0464
     19 C          -6.5372   -3.2184    6.1949 C.3     1  UNL1       -0.0520
     20 H          -7.5381   -4.6149    4.8874 H       1  UNL1        0.0271
     21 H          -8.4293   -4.1826    6.3240 H       1  UNL1        0.0271
     22 H          -7.0241   -2.3498    5.7328 H       1  UNL1        0.0266
     23 H          -6.5299   -3.0175    7.2690 H       1  UNL1        0.0266
     24 C          -5.1071   -3.3293    5.6415 C.3     1  UNL1       -0.0462
     25 C          -4.2086   -2.1099    5.9581 C.3     1  UNL1       -0.0158
     26 C          -2.7710   -2.3129    5.4737 C.ar    1  UNL1       -0.0443
     27 C          -2.2027   -1.3857    4.5835 C.ar    1  UNL1       -0.0583
     28 C          -0.8415   -1.4251    4.2720 C.ar    1  UNL1       -0.0615
     29 C          -0.0303   -2.4146    4.8181 C.ar    1  UNL1       -0.0617
     30 C          -0.5857   -3.3749    5.6613 C.ar    1  UNL1       -0.0615
     31 C          -1.9455   -3.3264    5.9869 C.ar    1  UNL1       -0.0583
     32 H          -4.6267   -4.2154    6.0529 H       1  UNL1        0.0271
     33 H          -5.1557   -3.4697    4.5541 H       1  UNL1        0.0271
     34 H          -4.6391   -1.2593    5.4142 H       1  UNL1        0.0349
     35 H          -2.8080   -0.5856    4.1630 H       1  UNL1        0.0620
     36 H          -0.4132   -0.6674    3.6210 H       1  UNL1        0.0618
     37 H           1.0323   -2.4338    4.5908 H       1  UNL1        0.0618
     38 H           0.0473   -4.1502    6.0850 H       1  UNL1        0.0618
     39 H          -2.3434   -4.0677    6.6760 H       1  UNL1        0.0620
     40 C          -4.2448   -1.7679    7.4675 C.3     1  UNL1       -0.0462
     41 C          -3.3087   -0.6460    7.9199 C.3     1  UNL1       -0.0520
     42 H          -5.2613   -1.4748    7.7502 H       1  UNL1        0.0271
     43 H          -4.0175   -2.6671    8.0565 H       1  UNL1        0.0271
     44 H          -3.4611   -0.4922    8.9959 H       1  UNL1        0.0266
     45 H          -2.2683   -0.9772    7.8352 H       1  UNL1        0.0266
     46 C          -3.4652    0.6871    7.1686 C.3     1  UNL1       -0.0462
     47 C          -4.8566    1.3444    7.2579 C.3     1  UNL1       -0.0158
     48 C          -4.8933    2.7310    6.6133 C.ar    1  UNL1       -0.0443
     49 C          -5.9212    3.0610    5.7134 C.ar    1  UNL1       -0.0583
     50 C          -6.1390    4.3915    5.3435 C.ar    1  UNL1       -0.0615
     51 C          -5.3361    5.4048    5.8647 C.ar    1  UNL1       -0.0617
     52 C          -4.2978    5.0895    6.7363 C.ar    1  UNL1       -0.0615
     53 C          -4.0690    3.7625    7.0977 C.ar    1  UNL1       -0.0583
     54 H          -2.7043    1.3616    7.5772 H       1  UNL1        0.0271
     55 H          -3.2110    0.5678    6.1151 H       1  UNL1        0.0271
     56 H          -5.5879    0.7013    6.7515 H       1  UNL1        0.0349
     57 H          -6.6124    2.2993    5.3582 H       1  UNL1        0.0620
     58 H          -6.9632    4.6429    4.6809 H       1  UNL1        0.0618
     59 H          -5.5315    6.4426    5.6090 H       1  UNL1        0.0618
     60 H          -3.6904    5.8781    7.1718 H       1  UNL1        0.0618
     61 H          -3.3002    3.5505    7.8370 H       1  UNL1        0.0620
     62 C          -5.2565    1.4704    8.7294 C.3     1  UNL1       -0.0462
     63 C          -6.4703    2.3458    8.9824 C.3     1  UNL1       -0.0520
     64 H          -5.4321    0.4856    9.1791 H       1  UNL1        0.0271
     65 H          -4.4149    1.9008    9.2926 H       1  UNL1        0.0271
     66 H          -6.2923    2.6460   10.0028 H       1  UNL1        0.0266
     67 H          -6.4678    3.2996    8.4523 H       1  UNL1        0.0266
     68 C          -7.8027    1.6252    8.7294 C.3     1  UNL1       -0.0462
     69 C          -9.0721    2.4297    9.1537 C.3     1  UNL1       -0.0158
     70 C         -10.3091    1.9572    8.3799 C.ar    1  UNL1       -0.0443
     71 C         -11.2549    2.8968    7.9345 C.ar    1  UNL1       -0.0583
     72 C         -12.3500    2.5070    7.1519 C.ar    1  UNL1       -0.0615
     73 C         -12.5276    1.1725    6.8086 C.ar    1  UNL1       -0.0617
     74 C         -11.6101    0.2234    7.2503 C.ar    1  UNL1       -0.0615
     75 C         -10.5122    0.6115    8.0348 C.ar    1  UNL1       -0.0583
     76 H          -7.8508    1.4240    7.6505 H       1  UNL1        0.0271
     77 H          -7.8031    0.6461    9.2255 H       1  UNL1        0.0271
     78 H          -8.8876    3.4653    8.8293 H       1  UNL1        0.0349
     79 H         -11.1283    3.9517    8.1717 H       1  UNL1        0.0620
     80 H         -13.0580    3.2602    6.8120 H       1  UNL1        0.0618
     81 H         -13.3728    0.8712    6.1898 H       1  UNL1        0.0618
     82 H         -11.7319   -0.8181    6.9716 H       1  UNL1        0.0618
     83 H          -9.8087   -0.1573    8.3386 H       1  UNL1        0.0620
     84 C          -9.3218    2.4742   10.7101 C.3     1  UNL1       -0.0462
     85 C          -8.0188    2.8210   11.4337 C.3     1  UNL1       -0.0520
     86 H         -10.0994    3.2115   10.9347 H       1  UNL1        0.0271
     87 H          -9.6924    1.5011   11.0534 H       1  UNL1        0.0271
     88 H          -7.4093    1.9391   11.2528 H       1  UNL1        0.0266
     89 H          -7.6240    3.7183   10.9463 H       1  UNL1        0.0266
     90 C          -7.8429    3.0358   12.9268 C.3     1  UNL1       -0.0462
     91 C          -6.3144    3.2797   13.3103 C.3     1  UNL1       -0.0158
     92 C          -5.3086    2.1292   13.0401 C.ar    1  UNL1       -0.0443
     93 C          -3.9134    2.3572   13.0507 C.ar    1  UNL1       -0.0583
     94 C          -2.9839    1.3172   12.8939 C.ar    1  UNL1       -0.0615
     95 C          -3.4245    0.0161   12.7235 C.ar    1  UNL1       -0.0617
     96 C          -4.7921   -0.2434   12.7151 C.ar    1  UNL1       -0.0615
     97 C          -5.7173    0.7958   12.8860 C.ar    1  UNL1       -0.0583
     98 H          -8.4507    3.8880   13.2475 H       1  UNL1        0.0271
     99 H          -8.2233    2.1652   13.4713 H       1  UNL1        0.0271
    100 H          -6.3112    3.3360   14.4062 H       1  UNL1        0.0349
    101 H          -3.4930    3.3462   13.2029 H       1  UNL1        0.0620
    102 H          -1.9205    1.5389   12.9215 H       1  UNL1        0.0618
    103 H          -2.7075   -0.7935   12.6157 H       1  UNL1        0.0618
    104 H          -5.1453   -1.2639   12.5896 H       1  UNL1        0.0618
    105 H          -6.7703    0.5287   12.8998 H       1  UNL1        0.0620
    106 C          -5.7553    4.6466   12.7786 C.3     1  UNL1       -0.0462
    107 C          -6.5626    5.9114   13.0885 C.3     1  UNL1       -0.0520
    108 H          -4.7781    4.8357   13.2356 H       1  UNL1        0.0271
    109 H          -5.5701    4.5866   11.6987 H       1  UNL1        0.0271
    110 H          -6.0148    6.7774   12.6930 H       1  UNL1        0.0266
    111 H          -7.5239    5.8845   12.5674 H       1  UNL1        0.0266
    112 C          -6.7442    6.0846   14.5965 C.3     1  UNL1       -0.0462
    113 C          -7.7325    7.1956   14.9920 C.3     1  UNL1       -0.0158
    114 C          -7.1962    8.6073   14.7899 C.ar    1  UNL1       -0.0443
    115 C          -7.9318    9.5087   14.0014 C.ar    1  UNL1       -0.0583
    116 C          -7.5227   10.8412   13.8676 C.ar    1  UNL1       -0.0615
    117 C          -6.3702   11.2844   14.5135 C.ar    1  UNL1       -0.0617
    118 C          -5.6178   10.3932   15.2773 C.ar    1  UNL1       -0.0615
    119 C          -6.0289    9.0648   15.4170 C.ar    1  UNL1       -0.0583
    120 H          -7.1413    5.1486   14.9998 H       1  UNL1        0.0271
    121 H          -5.7673    6.2314   15.0739 H       1  UNL1        0.0271
    122 H          -8.6095    7.0662   14.3446 H       1  UNL1        0.0349
    123 H          -8.8420    9.1914   13.5003 H       1  UNL1        0.0620
    124 H          -8.1190   11.5250   13.2809 H       1  UNL1        0.0618
    125 H          -6.0658   12.3201   14.4211 H       1  UNL1        0.0618
    126 H          -4.7146   10.7423   15.7734 H       1  UNL1        0.0618
    127 H          -5.4329    8.3983   16.0347 H       1  UNL1        0.0620
    128 C          -8.1806    6.9053   16.4500 C.3     1  UNL1       -0.0462
    129 C          -9.1399    7.9148   17.0937 C.3     1  UNL1       -0.0520
    130 H          -8.6777    5.9237   16.4566 H       1  UNL1        0.0271
    131 H          -7.3001    6.8001   17.0952 H       1  UNL1        0.0271
    132 H          -9.3239    7.5796   18.1188 H       1  UNL1        0.0266
    133 H          -8.6652    8.8972   17.1680 H       1  UNL1        0.0266
    134 C         -10.4553    7.9938   16.3215 C.3     1  UNL1       -0.0462
    135 C         -11.4275    9.1300   16.7170 C.3     1  UNL1       -0.0158
    136 C         -12.1403    9.0149   18.0676 C.ar    1  UNL1       -0.0443
    137 C         -11.9894    7.9316   18.9470 C.ar    1  UNL1       -0.0583
    138 C         -12.5573    7.9511   20.2312 C.ar    1  UNL1       -0.0615
    139 C         -13.3105    9.0408   20.6514 C.ar    1  UNL1       -0.0617
    140 C         -13.5034   10.1113   19.7874 C.ar    1  UNL1       -0.0615
    141 C         -12.9188   10.1002   18.5157 C.ar    1  UNL1       -0.0583
    142 H         -10.2063    8.1582   15.2690 H       1  UNL1        0.0271
    143 H         -10.9536    7.0183   16.3735 H       1  UNL1        0.0271
    144 H         -10.8128   10.0384   16.8103 H       1  UNL1        0.0349
    145 H         -11.4065    7.0575   18.6742 H       1  UNL1        0.0620
    146 H         -12.3914    7.1168   20.9090 H       1  UNL1        0.0618
    147 H         -13.7367    9.0610   21.6515 H       1  UNL1        0.0618
    148 H         -14.0916   10.9677   20.1056 H       1  UNL1        0.0618
    149 H         -13.0593   10.9728   17.8810 H       1  UNL1        0.0620
    150 C         -12.3958    9.3869   15.5078 C.3     1  UNL1       -0.0462
    151 C         -13.0527    8.1124   14.9548 C.3     1  UNL1       -0.0522
    152 H         -13.1683   10.1180   15.7689 H       1  UNL1        0.0271
    153 H         -11.8026    9.8465   14.7061 H       1  UNL1        0.0271
    154 H         -12.2897    7.3909   14.6648 H       1  UNL1        0.0266
    155 H         -13.6222    7.6441   15.7665 H       1  UNL1        0.0266
    156 C         -14.0020    8.3014   13.7667 C.3     1  UNL1       -0.0490
    157 C         -13.4592    8.8935   12.4548 C.3     1  UNL1       -0.0277
    158 C         -12.4314    8.1993   11.5818 C.ar    1  UNL1       -0.0474
    159 C         -11.7672    7.0089   11.8890 C.ar    1  UNL1       -0.0586
    160 C         -10.8165    6.4703   11.0074 C.ar    1  UNL1       -0.0615
    161 C         -10.5383    7.0913    9.7917 C.ar    1  UNL1       -0.0617
    162 C         -11.2076    8.2611    9.4548 C.ar    1  UNL1       -0.0615
    163 C         -12.1353    8.8097   10.3454 C.ar    1  UNL1       -0.0586
    164 H         -14.4709    7.3329   13.5499 H       1  UNL1        0.0268
    165 H         -14.8133    8.9617   14.1024 H       1  UNL1        0.0268
    166 H         -14.3454    9.0050   11.8112 H       1  UNL1        0.0313
    167 H         -11.9738    6.4648   12.8031 H       1  UNL1        0.0620
    168 H         -10.2947    5.5548   11.2699 H       1  UNL1        0.0618
    169 H          -9.8098    6.6634    9.1076 H       1  UNL1        0.0618
    170 H         -11.0126    8.7486    8.5031 H       1  UNL1        0.0618
    171 H         -12.6469    9.7277   10.0597 H       1  UNL1        0.0620
    172 H         -13.0969    9.9096   12.6517 H       1  UNL1        0.0313
@<TRIPOS>BOND
     1     1     2    1
     2     1     9    1
     3     1    10    1
     4     1    17    1
     5     2     3    1
     6     2    11    1
     7     2    18    1
     8     3     4   ar
     9     3     8   ar
    10     4     5   ar
    11     4    12    1
    12     5     6   ar
    13     5    13    1
    14     6     7   ar
    15     6    14    1
    16     7     8   ar
    17     7    15    1
    18     8    16    1
    19    18    19    1
    20    18    20    1
    21    18    21    1
    22    19    22    1
    23    19    23    1
    24    19    24    1
    25    24    25    1
    26    24    32    1
    27    24    33    1
    28    25    26    1
    29    25    34    1
    30    25    40    1
    31    26    27   ar
    32    26    31   ar
    33    27    28   ar
    34    27    35    1
    35    28    29   ar
    36    28    36    1
    37    29    30   ar
    38    29    37    1
    39    30    31   ar
    40    30    38    1
    41    31    39    1
    42    40    41    1
    43    40    42    1
    44    40    43    1
    45    41    44    1
    46    41    45    1
    47    41    46    1
    48    46    47    1
    49    46    54    1
    50    46    55    1
    51    47    48    1
    52    47    56    1
    53    47    62    1
    54    48    49   ar
    55    48    53   ar
    56    49    50   ar
    57    49    57    1
    58    50    51   ar
    59    50    58    1
    60    51    52   ar
    61    51    59    1
    62    52    53   ar
    63    52    60    1
    64    53    61    1
    65    62    63    1
    66    62    64    1
    67    62    65    1
    68    63    66    1
    69    63    67    1
    70    63    68    1
    71    68    76    1
    72    68    77    1
    73    69    78    1
    74    69    84    1
    75    70    71   ar
    76    70    75   ar
    77    71    72   ar
    78    71    79    1
    79    72    73   ar
    80    72    80    1
    81    73    74   ar
    82    73    81    1
    83    74    75   ar
    84    74    82    1
    85    75    83    1
    86    84    85    1
    87    84    86    1
    88    84    87    1
    89    85    88    1
    90    85    89    1
    91    85    90    1
    92    90    98    1
    93    90    99    1
    94    91   100    1
    95    91   106    1
    96    92    93   ar
    97    92    97   ar
    98    93    94   ar
    99    93   101    1
   100    94    95   ar
   101    94   102    1
   102    95    96   ar
   103    95   103    1
   104    96    97   ar
   105    96   104    1
   106    97   105    1
   107   106   107    1
   108   106   108    1
   109   106   109    1
   110   107   110    1
   111   107   111    1
   112   107   112    1
   113   112   113    1
   114   112   120    1
   115   112   121    1
   116   113   114    1
   117   113   122    1
   118   113   128    1
   119   114   115   ar
   120   114   119   ar
   121   115   116   ar
   122   115   123    1
   123   116   117   ar
   124   116   124    1
   125   117   118   ar
   126   117   125    1
   127   118   119   ar
   128   118   126    1
   129   119   127    1
   130   128   129    1
   131   128   130    1
   132   128   131    1
   133   129   132    1
   134   129   133    1
   135   129   134    1
   136   134   135    1
   137   134   142    1
   138   134   143    1
   139   135   136    1
   140   135   144    1
   141   135   150    1
   142   136   137   ar
   143   136   141   ar
   144   137   138   ar
   145   137   145    1
   146   138   139   ar
   147   138   146    1
   148   139   140   ar
   149   139   147    1
   150   140   141   ar
   151   140   148    1
   152   141   149    1
   153   150   151    1
   154   150   152    1
   155   150   153    1
   156   151   154    1
   157   151   155    1
   158   151   156    1
   159   156   157    1
   160   156   164    1
   161   156   165    1
   162   157   158    1
   163   157   166    1
   164   157   172    1
   165   158   159   ar
   166   158   163   ar
   167   159   160   ar
   168   159   167    1
   169   160   161   ar
   170   160   168    1
   171   161   162   ar
   172   161   169    1
   173   162   163   ar
   174   162   170    1
   175   163   171    1
   176    69    70    1
   177    69    68    1
   178    91    92    1
   179    91    90    1
