@<TRIPOS>MOLECULE
temp/c=cc1ccccc1_c=c_4.pdb
 46 47 0 0 0
SMALL
GASTEIGER

@<TRIPOS>ATOM
      1 C          -5.0667    4.5021    3.5820 C.3     1  UNL1       -0.0584
      2 C          -4.5223    4.1984    2.1803 C.3     1  UNL1       -0.0187
      3 C          -5.6051    3.8004    1.1841 C.ar    1  UNL1       -0.0445
      4 C          -5.4374    4.1323   -0.1721 C.ar    1  UNL1       -0.0583
      5 C          -6.4039    3.7892   -1.1196 C.ar    1  UNL1       -0.0615
      6 C          -7.5519    3.1062   -0.7277 C.ar    1  UNL1       -0.0617
      7 C          -7.7258    2.7549    0.6089 C.ar    1  UNL1       -0.0615
      8 C          -6.7557    3.0912    1.5565 C.ar    1  UNL1       -0.0583
      9 H          -5.9184    5.1893    3.5345 H       1  UNL1        0.0236
     10 H          -4.3032    4.9784    4.2053 H       1  UNL1        0.0236
     11 H          -4.0799    5.1359    1.8145 H       1  UNL1        0.0346
     12 H          -4.5459    4.6642   -0.4982 H       1  UNL1        0.0620
     13 H          -6.2606    4.0572   -2.1629 H       1  UNL1        0.0618
     14 H          -8.3086    2.8450   -1.4622 H       1  UNL1        0.0618
     15 H          -8.6194    2.2181    0.9165 H       1  UNL1        0.0618
     16 H          -6.9192    2.7932    2.5889 H       1  UNL1        0.0620
     17 H          -5.3904    3.5917    4.0982 H       1  UNL1        0.0236
     18 C          -3.4186    3.1204    2.2098 C.3     1  UNL1       -0.0464
     19 C          -2.1809    3.5551    3.0033 C.3     1  UNL1       -0.0520
     20 H          -3.8135    2.1863    2.6295 H       1  UNL1        0.0271
     21 H          -3.1273    2.8916    1.1791 H       1  UNL1        0.0271
     22 H          -1.8161    4.5186    2.6296 H       1  UNL1        0.0266
     23 H          -2.4580    3.7184    4.0509 H       1  UNL1        0.0266
     24 C          -1.0503    2.5156    2.9940 C.3     1  UNL1       -0.0462
     25 C          -0.4593    2.1737    1.6050 C.3     1  UNL1       -0.0161
     26 C          -0.0070    3.4343    0.8740 C.ar    1  UNL1       -0.0443
     27 C          -0.6898    3.8591   -0.2770 C.ar    1  UNL1       -0.0583
     28 C          -0.3605    5.0671   -0.8951 C.ar    1  UNL1       -0.0615
     29 C           0.6641    5.8592   -0.3790 C.ar    1  UNL1       -0.0617
     30 C           1.3666    5.4408    0.7475 C.ar    1  UNL1       -0.0615
     31 C           1.0331    4.2368    1.3710 C.ar    1  UNL1       -0.0583
     32 H          -0.2506    2.8770    3.6536 H       1  UNL1        0.0271
     33 H          -1.4426    1.6038    3.4591 H       1  UNL1        0.0271
     34 H          -1.2491    1.6934    1.0123 H       1  UNL1        0.0349
     35 H          -1.5036    3.2642   -0.6861 H       1  UNL1        0.0620
     36 H          -0.9136    5.3959   -1.7712 H       1  UNL1        0.0618
     37 H           0.9099    6.8050   -0.8550 H       1  UNL1        0.0618
     38 H           2.1665    6.0593    1.1501 H       1  UNL1        0.0618
     39 H           1.5774    3.9425    2.2646 H       1  UNL1        0.0620
     40 C           0.6915    1.1433    1.6986 C.3     1  UNL1       -0.0491
     41 C           0.3044   -0.1508    2.4056 C.3     1  UNL1       -0.0647
     42 H           1.0281    0.8942    0.6838 H       1  UNL1        0.0268
     43 H           1.5584    1.5704    2.2160 H       1  UNL1        0.0268
     44 H          -0.5941   -0.5921    1.9633 H       1  UNL1        0.0230
     45 H           1.1170   -0.8801    2.3285 H       1  UNL1        0.0230
     46 H           0.1226    0.0154    3.4719 H       1  UNL1        0.0230
@<TRIPOS>BOND
     1     1     2    1
     2     1     9    1
     3     1    10    1
     4     1    17    1
     5     2     3    1
     6     2    11    1
     7     2    18    1
     8     3     4   ar
     9     3     8   ar
    10     4     5   ar
    11     4    12    1
    12     5     6   ar
    13     5    13    1
    14     6     7   ar
    15     6    14    1
    16     7     8   ar
    17     7    15    1
    18     8    16    1
    19    18    19    1
    20    18    20    1
    21    18    21    1
    22    19    22    1
    23    19    23    1
    24    19    24    1
    25    24    32    1
    26    24    33    1
    27    25    34    1
    28    25    40    1
    29    26    27   ar
    30    26    31   ar
    31    27    28   ar
    32    27    35    1
    33    28    29   ar
    34    28    36    1
    35    29    30   ar
    36    29    37    1
    37    30    31   ar
    38    30    38    1
    39    31    39    1
    40    40    41    1
    41    40    42    1
    42    40    43    1
    43    41    44    1
    44    41    45    1
    45    41    46    1
    46    25    26    1
    47    25    24    1
