@<TRIPOS>MOLECULE
temp/c=cc1ccccc1_c=c_4.pdb
 46 47 0 0 0
SMALL
GASTEIGER

@<TRIPOS>ATOM
      1 C          -3.9135    0.5746   -5.4691 C.3     1  UNL1       -0.0584
      2 C          -4.3676    1.2399   -4.1644 C.3     1  UNL1       -0.0187
      3 C          -5.2657    2.4411   -4.4230 C.ar    1  UNL1       -0.0445
      4 C          -6.5561    2.4882   -3.8692 C.ar    1  UNL1       -0.0583
      5 C          -7.3975    3.5806   -4.1019 C.ar    1  UNL1       -0.0615
      6 C          -6.9590    4.6480   -4.8824 C.ar    1  UNL1       -0.0617
      7 C          -5.6881    4.6125   -5.4463 C.ar    1  UNL1       -0.0615
      8 C          -4.8559    3.5131   -5.2296 C.ar    1  UNL1       -0.0583
      9 H          -4.7793    0.2856   -6.0758 H       1  UNL1        0.0236
     10 H          -3.3354   -0.3316   -5.2591 H       1  UNL1        0.0236
     11 H          -4.9825    0.4866   -3.6504 H       1  UNL1        0.0346
     12 H          -6.9254    1.6670   -3.2595 H       1  UNL1        0.0620
     13 H          -8.3973    3.5977   -3.6770 H       1  UNL1        0.0618
     14 H          -7.6079    5.5016   -5.0568 H       1  UNL1        0.0618
     15 H          -5.3413    5.4383   -6.0618 H       1  UNL1        0.0618
     16 H          -3.8780    3.5064   -5.7031 H       1  UNL1        0.0620
     17 H          -3.2928    1.2328   -6.0846 H       1  UNL1        0.0236
     18 C          -3.1882    1.5283   -3.2012 C.3     1  UNL1       -0.0464
     19 C          -2.0621    2.4056   -3.7614 C.3     1  UNL1       -0.0520
     20 H          -3.5728    1.9836   -2.2798 H       1  UNL1        0.0271
     21 H          -2.7672    0.5596   -2.9077 H       1  UNL1        0.0271
     22 H          -1.6755    1.9932   -4.6977 H       1  UNL1        0.0266
     23 H          -2.4601    3.3966   -3.9983 H       1  UNL1        0.0266
     24 C          -0.9039    2.6406   -2.7842 C.3     1  UNL1       -0.0462
     25 C          -0.1130    1.3942   -2.3116 C.3     1  UNL1       -0.0161
     26 C           0.3046    0.5126   -3.4921 C.ar    1  UNL1       -0.0443
     27 C          -0.2554   -0.7738   -3.6401 C.ar    1  UNL1       -0.0583
     28 C          -0.0760   -1.5115   -4.8153 C.ar    1  UNL1       -0.0615
     29 C           0.6865   -0.9856   -5.8501 C.ar    1  UNL1       -0.0617
     30 C           1.3113    0.2501   -5.6923 C.ar    1  UNL1       -0.0615
     31 C           1.1309    0.9863   -4.5194 C.ar    1  UNL1       -0.0583
     32 H          -0.2099    3.3517   -3.2520 H       1  UNL1        0.0271
     33 H          -1.3220    3.1531   -1.9099 H       1  UNL1        0.0271
     34 H          -0.7821    0.8052   -1.6714 H       1  UNL1        0.0349
     35 H          -0.8792   -1.1919   -2.8537 H       1  UNL1        0.0620
     36 H          -0.5602   -2.4789   -4.9269 H       1  UNL1        0.0618
     37 H           0.7861   -1.5367   -6.7870 H       1  UNL1        0.0618
     38 H           1.9206    0.6508   -6.5006 H       1  UNL1        0.0618
     39 H           1.6040    1.9654   -4.4399 H       1  UNL1        0.0620
     40 C           1.0825    1.8159   -1.4175 C.3     1  UNL1       -0.0491
     41 C           0.6921    2.7335   -0.2559 C.3     1  UNL1       -0.0647
     42 H           1.5566    0.9177   -1.0028 H       1  UNL1        0.0268
     43 H           1.8492    2.3285   -2.0105 H       1  UNL1        0.0268
     44 H          -0.1310    2.3115    0.3301 H       1  UNL1        0.0230
     45 H           1.5432    2.8869    0.4147 H       1  UNL1        0.0230
     46 H           0.3881    3.7248   -0.6112 H       1  UNL1        0.0230
@<TRIPOS>BOND
     1     1     2    1
     2     1     9    1
     3     1    10    1
     4     1    17    1
     5     2     3    1
     6     2    11    1
     7     2    18    1
     8     3     4   ar
     9     3     8   ar
    10     4     5   ar
    11     4    12    1
    12     5     6   ar
    13     5    13    1
    14     6     7   ar
    15     6    14    1
    16     7     8   ar
    17     7    15    1
    18     8    16    1
    19    18    19    1
    20    18    20    1
    21    18    21    1
    22    19    22    1
    23    19    23    1
    24    19    24    1
    25    24    32    1
    26    24    33    1
    27    25    34    1
    28    25    40    1
    29    26    27   ar
    30    26    31   ar
    31    27    28   ar
    32    27    35    1
    33    28    29   ar
    34    28    36    1
    35    29    30   ar
    36    29    37    1
    37    30    31   ar
    38    30    38    1
    39    31    39    1
    40    40    41    1
    41    40    42    1
    42    40    43    1
    43    41    44    1
    44    41    45    1
    45    41    46    1
    46    25    26    1
    47    25    24    1
