@<TRIPOS>MOLECULE
input/solvents/pdb/hexane.pdb
 20 19 0 0 0
SMALL
GASTEIGER

@<TRIPOS>ATOM
      1 H           1.0007   -0.1047   -0.0553 H       1  UNL1        0.0230
      2 C           2.0952   -0.0959   -0.0507 C.3     1  UNL1       -0.0653
      3 H           2.4416   -0.9868    0.4832 H       1  UNL1        0.0230
      4 H           2.4416   -0.1609   -1.0873 H       1  UNL1        0.0230
      5 C           2.6118    1.1675    0.6139 C.3     1  UNL1       -0.0559
      6 H           2.2283    2.0436    0.0774 H       1  UNL1        0.0263
      7 H           2.2283    1.2219    1.6395 H       1  UNL1        0.0263
      8 C           4.1393    1.1924    0.6269 C.3     1  UNL1       -0.0533
      9 H           4.5168    0.3114    1.1597 H       1  UNL1        0.0265
     10 H           4.5168    1.1350   -0.4011 H       1  UNL1        0.0265
     11 C           4.6634    2.4600    1.2960 C.3     1  UNL1       -0.0533
     12 H           4.2848    3.3411    0.7640 H       1  UNL1        0.0265
     13 H           4.2871    2.5166    2.3244 H       1  UNL1        0.0265
     14 C           6.1909    2.4858    1.3072 C.3     1  UNL1       -0.0559
     15 H           6.5756    1.6090    1.8416 H       1  UNL1        0.0263
     16 H           6.5732    2.4336    0.2810 H       1  UNL1        0.0263
     17 C           6.7075    3.7483    1.9736 C.3     1  UNL1       -0.0653
     18 H           6.3599    4.6400    1.4418 H       1  UNL1        0.0230
     19 H           6.3623    3.8111    3.0107 H       1  UNL1        0.0230
     20 H           7.8020    3.7578    1.9769 H       1  UNL1        0.0230
@<TRIPOS>BOND
     1     1     2    1
     2     2     3    1
     3     2     4    1
     4     2     5    1
     5     5     6    1
     6     5     7    1
     7     5     8    1
     8     8     9    1
     9     8    10    1
    10     8    11    1
    11    11    12    1
    12    11    13    1
    13    11    14    1
    14    14    15    1
    15    14    16    1
    16    14    17    1
    17    17    18    1
    18    17    19    1
    19    17    20    1
