@<TRIPOS>MOLECULE
input/solvents/pdb/hexane.pdb
 20 19 0 0 0
SMALL
GASTEIGER

@<TRIPOS>ATOM
      1 H           1.0279    0.0523   -0.0048 H       1  UNL1        0.0230
      2 C           2.1224    0.0519   -0.0148 C.3     1  UNL1       -0.0653
      3 H           2.4688    0.9572    0.4945 H       1  UNL1        0.0230
      4 H           2.4688   -0.8162    0.5553 H       1  UNL1        0.0230
      5 C           2.6390    0.0032   -1.4415 C.3     1  UNL1       -0.0559
      6 H           2.2556   -0.8970   -1.9366 H       1  UNL1        0.0263
      7 H           2.2555    0.8671   -1.9970 H       1  UNL1        0.0263
      8 C           4.1665    0.0022   -1.4696 C.3     1  UNL1       -0.0533
      9 H           4.5440    0.9015   -0.9683 H       1  UNL1        0.0265
     10 H           4.5440   -0.8623   -0.9104 H       1  UNL1        0.0265
     11 C           4.6907   -0.0448   -2.9022 C.3     1  UNL1       -0.0533
     12 H           4.3143   -0.9449   -3.4030 H       1  UNL1        0.0265
     13 H           4.3120    0.8189   -3.4618 H       1  UNL1        0.0265
     14 C           6.2182   -0.0438   -2.9303 C.3     1  UNL1       -0.0559
     15 H           6.6005    0.8563   -2.4344 H       1  UNL1        0.0263
     16 H           6.6028   -0.9077   -2.3756 H       1  UNL1        0.0263
     17 C           6.7347   -0.0906   -4.3571 C.3     1  UNL1       -0.0653
     18 H           6.3895   -0.9958   -4.8672 H       1  UNL1        0.0230
     19 H           6.3872    0.7776   -4.9263 H       1  UNL1        0.0230
     20 H           7.8292   -0.0895   -4.3671 H       1  UNL1        0.0230
@<TRIPOS>BOND
     1     1     2    1
     2     2     3    1
     3     2     4    1
     4     2     5    1
     5     5     6    1
     6     5     7    1
     7     5     8    1
     8     8     9    1
     9     8    10    1
    10     8    11    1
    11    11    12    1
    12    11    13    1
    13    11    14    1
    14    14    15    1
    15    14    16    1
    16    14    17    1
    17    17    18    1
    18    17    19    1
    19    17    20    1
