@<TRIPOS>MOLECULE
input/solvents/pdb/hexane.pdb
 20 19 0 0 0
SMALL
GASTEIGER

@<TRIPOS>ATOM
      1 H           0.8844    0.0513    0.0666 H       1  UNL1        0.0230
      2 C           1.9790    0.0564    0.0580 C.3     1  UNL1       -0.0653
      3 H           2.3253    0.5471    0.9735 H       1  UNL1        0.0230
      4 H           2.3254   -0.9821    0.0734 H       1  UNL1        0.0230
      5 C           2.4955    0.7806   -1.1722 C.3     1  UNL1       -0.0559
      6 H           2.1121    0.2865   -2.0729 H       1  UNL1        0.0263
      7 H           2.1120    1.8077   -1.1775 H       1  UNL1        0.0263
      8 C           4.0230    0.7948   -1.1964 C.3     1  UNL1       -0.0533
      9 H           4.4006    1.2849   -0.2909 H       1  UNL1        0.0265
     10 H           4.4005   -0.2348   -1.1882 H       1  UNL1        0.0265
     11 C           4.5472    1.5237   -2.4306 C.3     1  UNL1       -0.0533
     12 H           4.1685    1.0344   -3.3361 H       1  UNL1        0.0265
     13 H           4.1708    2.5536   -2.4380 H       1  UNL1        0.0265
     14 C           6.0747    1.5361   -2.4558 C.3     1  UNL1       -0.0559
     15 H           6.4593    2.0280   -1.5544 H       1  UNL1        0.0263
     16 H           6.4570    0.5086   -2.4527 H       1  UNL1        0.0263
     17 C           6.5912    2.2621   -3.6850 C.3     1  UNL1       -0.0653
     18 H           6.2437    1.7735   -4.6011 H       1  UNL1        0.0230
     19 H           6.2460    3.3010   -3.6982 H       1  UNL1        0.0230
     20 H           7.6858    2.2659   -3.6943 H       1  UNL1        0.0230
@<TRIPOS>BOND
     1     1     2    1
     2     2     3    1
     3     2     4    1
     4     2     5    1
     5     5     6    1
     6     5     7    1
     7     5     8    1
     8     8     9    1
     9     8    10    1
    10     8    11    1
    11    11    12    1
    12    11    13    1
    13    11    14    1
    14    14    15    1
    15    14    16    1
    16    14    17    1
    17    17    18    1
    18    17    19    1
    19    17    20    1
