@<TRIPOS>MOLECULE
styrene.pdb
   16    16     1     0     0
SMALL
bcc


@<TRIPOS>ATOM
      1 C            1.0170     0.1020     0.1050 c2         1 UNL      -0.209000
      2 C1           0.2610     0.4520    -0.9440 ce         1 UNL      -0.113200
      3 C2          -1.2060     0.5430    -0.9290 ca         1 UNL      -0.057800
      4 C3          -1.9270     0.8850     0.2240 ca         1 UNL      -0.118500
      5 C4          -3.3200     0.9920     0.1890 ca         1 UNL      -0.131000
      6 C5          -4.0080     0.7700    -1.0010 ca         1 UNL      -0.127000
      7 C6          -3.3040     0.4450    -2.1580 ca         1 UNL      -0.131000
      8 C7          -1.9110     0.3370    -2.1230 ca         1 UNL      -0.118500
      9 H            0.5960    -0.1580     1.0710 ha         1 UNL       0.113500
     10 H1           2.0980     0.0530     0.0110 ha         1 UNL       0.113500
     11 H2           0.7460     0.6740    -1.8920 ha         1 UNL       0.123000
     12 H3          -1.4140     1.0840     1.1610 ha         1 UNL       0.131500
     13 H4          -3.8650     1.2550     1.0930 ha         1 UNL       0.131000
     14 H5          -5.0910     0.8550    -1.0270 ha         1 UNL       0.131000
     15 H6          -3.8380     0.2760    -3.0890 ha         1 UNL       0.131000
     16 H7          -1.3810     0.0820    -3.0380 ha         1 UNL       0.131500
@<TRIPOS>BOND
     1     1     2 2   
     2     1     9 1   
     3     1    10 1   
     4     2     3 1   
     5     2    11 1   
     6     3     4 ar  
     7     3     8 ar  
     8     4     5 ar  
     9     4    12 1   
    10     5     6 ar  
    11     5    13 1   
    12     6     7 ar  
    13     6    14 1   
    14     7     8 ar  
    15     7    15 1   
    16     8    16 1   
@<TRIPOS>SUBSTRUCTURE
     1 UNL         1 TEMP              0 ****  ****    0 ROOT
