@<TRIPOS>MOLECULE
input/solvents/pdb/hexane.pdb
   20    19     1     0     0
SMALL
bcc


@<TRIPOS>ATOM
      1 H            0.9000     0.1020    -0.0540 hc         1 UNL       0.032700
      2 C            1.9950     0.0920    -0.0540 c3         1 UNL      -0.092100
      3 H1           2.3410     0.6420    -0.9350 hc         1 UNL       0.032700
      4 H2           2.3410     0.6230     0.8390 hc         1 UNL       0.032700
      5 C1           2.5110    -1.3350    -0.0690 c3         1 UNL      -0.080400
      6 H3           2.1280    -1.8700     0.8080 hc         1 UNL       0.038700
      7 H4           2.1280    -1.8510    -0.9570 hc         1 UNL       0.038700
      8 C2           4.0390    -1.3630    -0.0690 c3         1 UNL      -0.079400
      9 H5           4.4160    -0.8220    -0.9450 hc         1 UNL       0.038700
     10 H6           4.4160    -0.8430     0.8200 hc         1 UNL       0.038700
     11 C3           4.5630    -2.7960    -0.0860 c3         1 UNL      -0.079400
     12 H7           4.1840    -3.3380     0.7900 hc         1 UNL       0.038700
     13 H8           4.1860    -3.3160    -0.9750 hc         1 UNL       0.038700
     14 C4           6.0900    -2.8240    -0.0840 c3         1 UNL      -0.080400
     15 H9           6.4750    -2.2880    -0.9600 hc         1 UNL       0.038700
     16 H10          6.4730    -2.3100     0.8050 hc         1 UNL       0.038700
     17 C5           6.6070    -4.2520    -0.1010 c3         1 UNL      -0.092100
     18 H11          6.2590    -4.8030     0.7790 hc         1 UNL       0.032700
     19 H12          6.2620    -4.7810    -0.9950 hc         1 UNL       0.032700
     20 H13          7.7010    -4.2620    -0.1000 hc         1 UNL       0.032700
@<TRIPOS>BOND
     1     1     2 1   
     2     2     3 1   
     3     2     4 1   
     4     2     5 1   
     5     5     6 1   
     6     5     7 1   
     7     5     8 1   
     8     8     9 1   
     9     8    10 1   
    10     8    11 1   
    11    11    12 1   
    12    11    13 1   
    13    11    14 1   
    14    14    15 1   
    15    14    16 1   
    16    14    17 1   
    17    17    18 1   
    18    17    19 1   
    19    17    20 1   
@<TRIPOS>SUBSTRUCTURE
     1 UNL         1 TEMP              0 ****  ****    0 ROOT
