@<TRIPOS>MOLECULE
input/solvents/pdb/hexane.pdb
   20    19     1     0     0
SMALL
bcc


@<TRIPOS>ATOM
      1 H            1.0080    -0.0090    -0.0500 hc         1 UNL       0.032700
      2 C            2.1030    -0.0150    -0.0580 c3         1 UNL      -0.092100
      3 H1           2.4490     1.0160    -0.1810 hc         1 UNL       0.032700
      4 H2           2.4490    -0.3800     0.9150 hc         1 UNL       0.032700
      5 C1           2.6190    -0.8970    -1.1810 c3         1 UNL      -0.080400
      6 H3           2.2360    -1.9160    -1.0490 hc         1 UNL       0.038700
      7 H4           2.2360    -0.5270    -2.1390 hc         1 UNL       0.038700
      8 C2           4.1470    -0.9140    -1.2030 c3         1 UNL      -0.079400
      9 H5           4.5240     0.1080    -1.3290 hc         1 UNL       0.038700
     10 H6           4.5240    -1.2820    -0.2410 hc         1 UNL       0.038700
     11 C3           4.6710    -1.7980    -2.3320 c3         1 UNL      -0.079400
     12 H7           4.2950    -2.8200    -2.2040 hc         1 UNL       0.038700
     13 H8           4.2920    -1.4310    -3.2930 hc         1 UNL       0.038700
     14 C4           6.1990    -1.8140    -2.3550 c3         1 UNL      -0.080400
     15 H9           6.5810    -0.7940    -2.4860 hc         1 UNL       0.038700
     16 H10          6.5830    -2.1830    -1.3970 hc         1 UNL       0.038700
     17 C5           6.7150    -2.6940    -3.4790 c3         1 UNL      -0.092100
     18 H11          6.3700    -3.7250    -3.3560 hc         1 UNL       0.032700
     19 H12          6.3680    -2.3290    -4.4510 hc         1 UNL       0.032700
     20 H13          7.8100    -2.6990    -3.4870 hc         1 UNL       0.032700
@<TRIPOS>BOND
     1     1     2 1   
     2     2     3 1   
     3     2     4 1   
     4     2     5 1   
     5     5     6 1   
     6     5     7 1   
     7     5     8 1   
     8     8     9 1   
     9     8    10 1   
    10     8    11 1   
    11    11    12 1   
    12    11    13 1   
    13    11    14 1   
    14    14    15 1   
    15    14    16 1   
    16    14    17 1   
    17    17    18 1   
    18    17    19 1   
    19    17    20 1   
@<TRIPOS>SUBSTRUCTURE
     1 UNL         1 TEMP              0 ****  ****    0 ROOT
