@<TRIPOS>MOLECULE
input/solvents/pdb/hexane.pdb
   20    19     1     0     0
SMALL
bcc


@<TRIPOS>ATOM
      1 H            0.8910    -0.0280    -0.0600 hc         1 UNL       0.032700
      2 C            1.9860    -0.0200    -0.0660 c3         1 UNL      -0.092100
      3 H1           2.3320     0.0810     0.9670 hc         1 UNL       0.032700
      4 H2           2.3330    -0.9840    -0.4520 hc         1 UNL       0.032700
      5 C1           2.5030     1.1220    -0.9230 c3         1 UNL      -0.080400
      6 H3           2.1190     1.0130    -1.9450 hc         1 UNL       0.038700
      7 H4           2.1190     2.0720    -0.5330 hc         1 UNL       0.038700
      8 C2           4.0300     1.1440    -0.9400 c3         1 UNL      -0.079400
      9 H5           4.4080     1.2480     0.0840 hc         1 UNL       0.038700
     10 H6           4.4080     0.1910    -1.3290 hc         1 UNL       0.038700
     11 C3           4.5540     2.2920    -1.7990 c3         1 UNL      -0.079400
     12 H7           4.1780     2.1880    -2.8230 hc         1 UNL       0.038700
     13 H8           4.1760     3.2450    -1.4110 hc         1 UNL       0.038700
     14 C4           6.0820     2.3160    -1.8140 c3         1 UNL      -0.080400
     15 H9           6.4640     2.4250    -0.7920 hc         1 UNL       0.038700
     16 H10          6.4660     1.3670    -2.2050 hc         1 UNL       0.038700
     17 C5           6.5980     3.4590    -2.6690 c3         1 UNL      -0.092100
     18 H11          6.2530     3.3590    -3.7030 hc         1 UNL       0.032700
     19 H12          6.2510     4.4230    -2.2830 hc         1 UNL       0.032700
     20 H13          7.6930     3.4680    -2.6740 hc         1 UNL       0.032700
@<TRIPOS>BOND
     1     1     2 1   
     2     2     3 1   
     3     2     4 1   
     4     2     5 1   
     5     5     6 1   
     6     5     7 1   
     7     5     8 1   
     8     8     9 1   
     9     8    10 1   
    10     8    11 1   
    11    11    12 1   
    12    11    13 1   
    13    11    14 1   
    14    14    15 1   
    15    14    16 1   
    16    14    17 1   
    17    17    18 1   
    18    17    19 1   
    19    17    20 1   
@<TRIPOS>SUBSTRUCTURE
     1 UNL         1 TEMP              0 ****  ****    0 ROOT
