@<TRIPOS>MOLECULE
styrene.pdb
   16    16     1     0     0
SMALL
bcc


@<TRIPOS>ATOM
      1 C            0.9830     0.1590    -0.1160 c2         1 UNL      -0.209000
      2 C1           0.2260    -0.6630    -0.8560 ce         1 UNL      -0.113200
      3 C2          -1.2410    -0.6120    -0.9330 ca         1 UNL      -0.057800
      4 C3          -1.9620     0.5810    -0.7880 ca         1 UNL      -0.118500
      5 C4          -3.3540     0.5930    -0.8980 ca         1 UNL      -0.131000
      6 C5          -4.0430    -0.5880    -1.1690 ca         1 UNL      -0.127000
      7 C6          -3.3390    -1.7780    -1.3320 ca         1 UNL      -0.131000
      8 C7          -1.9450    -1.7890    -1.2200 ca         1 UNL      -0.118500
      9 H            0.5620     0.9390     0.5090 ha         1 UNL       0.113500
     10 H1           2.0630     0.0520    -0.1080 ha         1 UNL       0.113500
     11 H2           0.7110    -1.4430    -1.4390 ha         1 UNL       0.123000
     12 H3          -1.4480     1.5200    -0.5970 ha         1 UNL       0.131500
     13 H4          -3.8990     1.5260    -0.7790 ha         1 UNL       0.131000
     14 H5          -5.1260    -0.5780    -1.2570 ha         1 UNL       0.131000
     15 H6          -3.8730    -2.7000    -1.5480 ha         1 UNL       0.131000
     16 H7          -1.4160    -2.7290    -1.3510 ha         1 UNL       0.131500
@<TRIPOS>BOND
     1     1     2 2   
     2     1     9 1   
     3     1    10 1   
     4     2     3 1   
     5     2    11 1   
     6     3     4 ar  
     7     3     8 ar  
     8     4     5 ar  
     9     4    12 1   
    10     5     6 ar  
    11     5    13 1   
    12     6     7 ar  
    13     6    14 1   
    14     7     8 ar  
    15     7    15 1   
    16     8    16 1   
@<TRIPOS>SUBSTRUCTURE
     1 UNL         1 TEMP              0 ****  ****    0 ROOT
