@<TRIPOS>MOLECULE
temp/c=cc1ccccc1_c=c_4.pdb
   46    47     1     0     0
SMALL
bcc


@<TRIPOS>ATOM
      1 C           -2.3560     2.5530     3.3150 c3         1 UNL      -0.089100
      2 C1          -2.9370     1.5170     2.3440 c3         1 UNL      -0.021400
      3 C2          -4.4050     1.1880     2.5740 ca         1 UNL      -0.070300
      4 C3          -5.2200     0.8910     1.4680 ca         1 UNL      -0.129000
      5 C4          -6.5570     0.5260     1.6370 ca         1 UNL      -0.129000
      6 C5          -7.1010     0.4470     2.9160 ca         1 UNL      -0.134000
      7 C6          -6.3120     0.7440     4.0230 ca         1 UNL      -0.129000
      8 C7          -4.9750     1.1150     3.8540 ca         1 UNL      -0.129000
      9 H           -2.9260     3.4880     3.2700 hc         1 UNL       0.036700
     10 H1          -1.3180     2.7830     3.0520 hc         1 UNL       0.036700
     11 H2          -2.8780     1.9930     1.3530 hc         1 UNL       0.048700
     12 H3          -4.8120     0.9370     0.4600 ha         1 UNL       0.131500
     13 H4          -7.1700     0.2950     0.7700 ha         1 UNL       0.129500
     14 H5          -8.1380     0.1500     3.0500 ha         1 UNL       0.130000
     15 H6          -6.7320     0.6800     5.0230 ha         1 UNL       0.129500
     16 H7          -4.3820     1.3220     4.7410 ha         1 UNL       0.131500
     17 H8          -2.3640     2.2160     4.3550 hc         1 UNL       0.036700
     18 C8          -2.0690     0.2380     2.2640 c3         1 UNL      -0.069400
     19 C9          -1.8950    -0.5030     3.5950 c3         1 UNL      -0.084400
     20 H9          -2.5010    -0.4500     1.5250 hc         1 UNL       0.039200
     21 H10         -1.0850     0.5240     1.8750 hc         1 UNL       0.039200
     22 H11         -1.4510     0.1560     4.3470 hc         1 UNL       0.048700
     23 H12         -2.8810    -0.7890     3.9800 hc         1 UNL       0.048700
     24 C10         -1.0680    -1.7920     3.4860 c3         1 UNL      -0.070400
     25 C11          0.4080    -1.6270     3.0540 c3         1 UNL      -0.023400
     26 C12          1.1460    -0.6000     3.9060 ca         1 UNL      -0.071300
     27 C13          1.6250     0.5820     3.3200 ca         1 UNL      -0.128000
     28 C14          2.2570     1.5600     4.0950 ca         1 UNL      -0.129000
     29 C15          2.4190     1.3680     5.4640 ca         1 UNL      -0.134000
     30 C16          1.9620     0.1930     6.0590 ca         1 UNL      -0.129000
     31 C17          1.3290    -0.7830     5.2860 ca         1 UNL      -0.128000
     32 H13         -1.1070    -2.2990     4.4590 hc         1 UNL       0.043200
     33 H14         -1.5820    -2.4520     2.7760 hc         1 UNL       0.043200
     34 H15          0.4140    -1.2810     2.0120 hc         1 UNL       0.054700
     35 H16          1.5040     0.7570     2.2540 ha         1 UNL       0.131000
     36 H17          2.6110     2.4750     3.6290 ha         1 UNL       0.129500
     37 H18          2.9030     2.1310     6.0680 ha         1 UNL       0.130000
     38 H19          2.0920     0.0400     7.1260 ha         1 UNL       0.129500
     39 H20          0.9690    -1.6840     5.7760 ha         1 UNL       0.131000
     40 C18          1.1640    -2.9800     3.0770 c3         1 UNL      -0.076400
     41 C19          0.5380    -4.0560     2.1980 c3         1 UNL      -0.093100
     42 H21          2.1970    -2.8210     2.7430 hc         1 UNL       0.043200
     43 H22          1.2270    -3.3700     4.1000 hc         1 UNL       0.043200
     44 H23          0.4410    -3.7150     1.1630 hc         1 UNL       0.033367
     45 H24          1.1640    -4.9550     2.2030 hc         1 UNL       0.033367
     46 H25         -0.4500    -4.3510     2.5620 hc         1 UNL       0.033367
@<TRIPOS>BOND
     1     1     2 1   
     2     1     9 1   
     3     1    10 1   
     4     1    17 1   
     5     2     3 1   
     6     2    11 1   
     7     2    18 1   
     8     3     4 ar  
     9     3     8 ar  
    10     4     5 ar  
    11     4    12 1   
    12     5     6 ar  
    13     5    13 1   
    14     6     7 ar  
    15     6    14 1   
    16     7     8 ar  
    17     7    15 1   
    18     8    16 1   
    19    18    19 1   
    20    18    20 1   
    21    18    21 1   
    22    19    22 1   
    23    19    23 1   
    24    19    24 1   
    25    24    32 1   
    26    24    33 1   
    27    25    34 1   
    28    25    40 1   
    29    26    27 ar  
    30    26    31 ar  
    31    27    28 ar  
    32    27    35 1   
    33    28    29 ar  
    34    28    36 1   
    35    29    30 ar  
    36    29    37 1   
    37    30    31 ar  
    38    30    38 1   
    39    31    39 1   
    40    40    41 1   
    41    40    42 1   
    42    40    43 1   
    43    41    44 1   
    44    41    45 1   
    45    41    46 1   
    46    25    26 1   
    47    25    24 1   
@<TRIPOS>SUBSTRUCTURE
     1 UNL         1 TEMP              0 ****  ****    0 ROOT
