@<TRIPOS>MOLECULE
temp/c=cc1ccccc1_c=c_4.pdb
   46    47     1     0     0
SMALL
bcc


@<TRIPOS>ATOM
      1 C           -3.0260     1.9530     4.1610 c3         1 UNL      -0.089100
      2 C1          -3.5910     1.0110     3.0890 c3         1 UNL      -0.021400
      3 C2          -4.9270     0.3760     3.4470 ca         1 UNL      -0.070300
      4 C3          -5.8630     0.1360     2.4260 ca         1 UNL      -0.129000
      5 C4          -7.0760    -0.4990     2.6980 ca         1 UNL      -0.129000
      6 C5          -7.3720    -0.9080     3.9950 ca         1 UNL      -0.134000
      7 C6          -6.4600    -0.6730     5.0200 ca         1 UNL      -0.129000
      8 C7          -5.2480    -0.0340     4.7490 ca         1 UNL      -0.129000
      9 H           -3.7360     2.7580     4.3790 hc         1 UNL       0.036700
     10 H1          -2.0950     2.4130     3.8110 hc         1 UNL       0.036700
     11 H2          -3.7770     1.6550     2.2160 hc         1 UNL       0.048700
     12 H3          -5.6450     0.4360     1.4030 ha         1 UNL       0.131500
     13 H4          -7.7850    -0.6820     1.8950 ha         1 UNL       0.129500
     14 H5          -8.3110    -1.4140     4.2060 ha         1 UNL       0.130000
     15 H6          -6.6860    -0.9970     6.0330 ha         1 UNL       0.129500
     16 H7          -4.5500     0.1160     5.5690 ha         1 UNL       0.131500
     17 H8          -2.8070     1.4450     5.1060 hc         1 UNL       0.036700
     18 C8          -2.5610    -0.0490     2.6380 c3         1 UNL      -0.069400
     19 C9          -2.0540    -0.9680     3.7560 c3         1 UNL      -0.084400
     20 H9          -2.9950    -0.6660     1.8390 hc         1 UNL       0.039200
     21 H10         -1.7140     0.4800     2.1860 hc         1 UNL       0.039200
     22 H11         -1.6110    -0.3800     4.5660 hc         1 UNL       0.048700
     23 H12         -2.9010    -1.5060     4.1950 hc         1 UNL       0.048700
     24 C10         -1.0490    -2.0260     3.2800 c3         1 UNL      -0.070400
     25 C11          0.2810    -1.4920     2.6980 c3         1 UNL      -0.023400
     26 C12          0.9520    -0.4920     3.6340 ca         1 UNL      -0.071300
     27 C13          1.0860     0.8500     3.2450 ca         1 UNL      -0.128000
     28 C14          1.6230     1.7980     4.1190 ca         1 UNL      -0.129000
     29 C15          2.0420     1.4170     5.3910 ca         1 UNL      -0.134000
     30 C16          1.9350     0.0850     5.7850 ca         1 UNL      -0.129000
     31 C17          1.3940    -0.8630     4.9140 ca         1 UNL      -0.128000
     32 H13         -0.8370    -2.6900     4.1290 hc         1 UNL       0.043200
     33 H14         -1.5530    -2.6430     2.5270 hc         1 UNL       0.043200
     34 H15          0.0500    -0.9780     1.7550 hc         1 UNL       0.054700
     35 H16          0.7550     1.1740     2.2600 ha         1 UNL       0.131000
     36 H17          1.7030     2.8370     3.8100 ha         1 UNL       0.129500
     37 H18          2.4490     2.1560     6.0750 ha         1 UNL       0.130000
     38 H19          2.2620    -0.2150     6.7770 ha         1 UNL       0.129500
     39 H20          1.3030    -1.8920     5.2520 ha         1 UNL       0.131000
     40 C18          1.2540    -2.6430     2.3450 c3         1 UNL      -0.076400
     41 C19          0.6840    -3.6460     1.3480 c3         1 UNL      -0.093100
     42 H21          2.1730    -2.2200     1.9200 hc         1 UNL       0.043200
     43 H22          1.5530    -3.1880     3.2480 hc         1 UNL       0.043200
     44 H23          0.3400    -3.1470     0.4370 hc         1 UNL       0.033367
     45 H24          1.4520    -4.3740     1.0690 hc         1 UNL       0.033367
     46 H25         -0.1520    -4.2080     1.7760 hc         1 UNL       0.033367
@<TRIPOS>BOND
     1     1     2 1   
     2     1     9 1   
     3     1    10 1   
     4     1    17 1   
     5     2     3 1   
     6     2    11 1   
     7     2    18 1   
     8     3     4 ar  
     9     3     8 ar  
    10     4     5 ar  
    11     4    12 1   
    12     5     6 ar  
    13     5    13 1   
    14     6     7 ar  
    15     6    14 1   
    16     7     8 ar  
    17     7    15 1   
    18     8    16 1   
    19    18    19 1   
    20    18    20 1   
    21    18    21 1   
    22    19    22 1   
    23    19    23 1   
    24    19    24 1   
    25    24    32 1   
    26    24    33 1   
    27    25    34 1   
    28    25    40 1   
    29    26    27 ar  
    30    26    31 ar  
    31    27    28 ar  
    32    27    35 1   
    33    28    29 ar  
    34    28    36 1   
    35    29    30 ar  
    36    29    37 1   
    37    30    31 ar  
    38    30    38 1   
    39    31    39 1   
    40    40    41 1   
    41    40    42 1   
    42    40    43 1   
    43    41    44 1   
    44    41    45 1   
    45    41    46 1   
    46    25    26 1   
    47    25    24 1   
@<TRIPOS>SUBSTRUCTURE
     1 UNL         1 TEMP              0 ****  ****    0 ROOT
