@<TRIPOS>MOLECULE
input/solvents/pdb/hexane.pdb
   20    19     1     0     0
SMALL
bcc


@<TRIPOS>ATOM
      1 H            1.0170    -0.0610    -0.0400 hc         1 UNL       0.032700
      2 C            2.1110    -0.0540    -0.0470 c3         1 UNL      -0.092100
      3 H1           2.4580     0.1340     0.9750 hc         1 UNL       0.032700
      4 H2           2.4580    -1.0480    -0.3490 hc         1 UNL       0.032700
      5 C1           2.6280     1.0110    -0.9970 c3         1 UNL      -0.080400
      6 H3           2.2440     0.8160    -2.0060 hc         1 UNL       0.038700
      7 H4           2.2440     1.9910    -0.6880 hc         1 UNL       0.038700
      8 C2           4.1550     1.0320    -1.0160 c3         1 UNL      -0.079400
      9 H5           4.5330     1.2220    -0.0040 hc         1 UNL       0.038700
     10 H6           4.5330     0.0500    -1.3220 hc         1 UNL       0.038700
     11 C3           4.6790     2.1030    -1.9680 c3         1 UNL      -0.079400
     12 H7           4.3030     1.9120    -2.9810 hc         1 UNL       0.038700
     13 H8           4.3010     3.0860    -1.6630 hc         1 UNL       0.038700
     14 C4           6.2070     2.1260    -1.9860 c3         1 UNL      -0.080400
     15 H9           6.5890     2.3200    -0.9760 hc         1 UNL       0.038700
     16 H10          6.5910     1.1470    -2.2950 hc         1 UNL       0.038700
     17 C5           6.7230     3.1920    -2.9340 c3         1 UNL      -0.092100
     18 H11          6.3780     3.0050    -3.9560 hc         1 UNL       0.032700
     19 H12          6.3760     4.1850    -2.6310 hc         1 UNL       0.032700
     20 H13          7.8180     3.2010    -2.9400 hc         1 UNL       0.032700
@<TRIPOS>BOND
     1     1     2 1   
     2     2     3 1   
     3     2     4 1   
     4     2     5 1   
     5     5     6 1   
     6     5     7 1   
     7     5     8 1   
     8     8     9 1   
     9     8    10 1   
    10     8    11 1   
    11    11    12 1   
    12    11    13 1   
    13    11    14 1   
    14    14    15 1   
    15    14    16 1   
    16    14    17 1   
    17    17    18 1   
    18    17    19 1   
    19    17    20 1   
@<TRIPOS>SUBSTRUCTURE
     1 UNL         1 TEMP              0 ****  ****    0 ROOT
