@<TRIPOS>MOLECULE
styrene.pdb
   16    16     1     0     0
SMALL
bcc


@<TRIPOS>ATOM
      1 C            0.9930    -0.0820    -0.1090 c2         1 UNL      -0.209000
      2 C1           0.2360    -1.1730     0.0640 ce         1 UNL      -0.113200
      3 C2          -1.2310    -1.2020    -0.0250 ca         1 UNL      -0.057800
      4 C3          -1.9520    -0.3370    -0.8590 ca         1 UNL      -0.118500
      5 C4          -3.3450    -0.4170    -0.9380 ca         1 UNL      -0.131000
      6 C5          -4.0330    -1.3710    -0.1910 ca         1 UNL      -0.127000
      7 C6          -3.3290    -2.2470     0.6300 ca         1 UNL      -0.131000
      8 C7          -1.9350    -2.1660     0.7090 ca         1 UNL      -0.118500
      9 H            0.5730     0.8950    -0.3240 ha         1 UNL       0.113500
     10 H1           2.0730    -0.1440    -0.0200 ha         1 UNL       0.113500
     11 H2           0.7200    -2.1170     0.3050 ha         1 UNL       0.123000
     12 H3          -1.4390     0.4030    -1.4680 ha         1 UNL       0.131500
     13 H4          -3.8900     0.2630    -1.5870 ha         1 UNL       0.131000
     14 H5          -5.1160    -1.4330    -0.2540 ha         1 UNL       0.131000
     15 H6          -3.8620    -2.9960     1.2100 ha         1 UNL       0.131000
     16 H7          -1.4060    -2.8600     1.3570 ha         1 UNL       0.131500
@<TRIPOS>BOND
     1     1     2 2   
     2     1     9 1   
     3     1    10 1   
     4     2     3 1   
     5     2    11 1   
     6     3     4 ar  
     7     3     8 ar  
     8     4     5 ar  
     9     4    12 1   
    10     5     6 ar  
    11     5    13 1   
    12     6     7 ar  
    13     6    14 1   
    14     7     8 ar  
    15     7    15 1   
    16     8    16 1   
@<TRIPOS>SUBSTRUCTURE
     1 UNL         1 TEMP              0 ****  ****    0 ROOT
