@<TRIPOS>MOLECULE
styrene.pdb
   16    16     1     0     0
SMALL
bcc


@<TRIPOS>ATOM
      1 C            1.1380     0.0410    -0.1240 c2         1 UNL      -0.209000
      2 C1           0.3820    -0.7580    -0.8880 ce         1 UNL      -0.113200
      3 C2          -1.0850    -0.7050    -0.9660 ca         1 UNL      -0.057800
      4 C3          -1.8060     0.4830    -0.7840 ca         1 UNL      -0.118500
      5 C4          -3.2000     0.4970    -0.8960 ca         1 UNL      -0.131000
      6 C5          -3.8880    -0.6750    -1.2020 ca         1 UNL      -0.127000
      7 C6          -3.1830    -1.8600    -1.4010 ca         1 UNL      -0.131000
      8 C7          -1.7900    -1.8730    -1.2880 ca         1 UNL      -0.118500
      9 H            0.7170     0.8030     0.5220 ha         1 UNL       0.113500
     10 H1           2.2180    -0.0660    -0.1200 ha         1 UNL       0.113500
     11 H2           0.8660    -1.5210    -1.4940 ha         1 UNL       0.123000
     12 H3          -1.2940     1.4150    -0.5650 ha         1 UNL       0.131500
     13 H4          -3.7450     1.4250    -0.7480 ha         1 UNL       0.131000
     14 H5          -4.9710    -0.6630    -1.2900 ha         1 UNL       0.131000
     15 H6          -3.7160    -2.7750    -1.6450 ha         1 UNL       0.131000
     16 H7          -1.2600    -2.8090    -1.4480 ha         1 UNL       0.131500
@<TRIPOS>BOND
     1     1     2 2   
     2     1     9 1   
     3     1    10 1   
     4     2     3 1   
     5     2    11 1   
     6     3     4 ar  
     7     3     8 ar  
     8     4     5 ar  
     9     4    12 1   
    10     5     6 ar  
    11     5    13 1   
    12     6     7 ar  
    13     6    14 1   
    14     7     8 ar  
    15     7    15 1   
    16     8    16 1   
@<TRIPOS>SUBSTRUCTURE
     1 UNL         1 TEMP              0 ****  ****    0 ROOT
