@<TRIPOS>MOLECULE
input/solvents/pdb/hexane.pdb
   20    19     1     0     0
SMALL
bcc


@<TRIPOS>ATOM
      1 H            0.8840     0.0510     0.0670 hc         1 UNL       0.032700
      2 C            1.9790     0.0560     0.0580 c3         1 UNL      -0.092100
      3 H1           2.3250     0.5470     0.9740 hc         1 UNL       0.032700
      4 H2           2.3250    -0.9820     0.0730 hc         1 UNL       0.032700
      5 C1           2.4950     0.7810    -1.1720 c3         1 UNL      -0.080400
      6 H3           2.1120     0.2860    -2.0730 hc         1 UNL       0.038700
      7 H4           2.1120     1.8080    -1.1770 hc         1 UNL       0.038700
      8 C2           4.0230     0.7950    -1.1960 c3         1 UNL      -0.079400
      9 H5           4.4010     1.2850    -0.2910 hc         1 UNL       0.038700
     10 H6           4.4010    -0.2350    -1.1880 hc         1 UNL       0.038700
     11 C3           4.5470     1.5240    -2.4310 c3         1 UNL      -0.079400
     12 H7           4.1680     1.0340    -3.3360 hc         1 UNL       0.038700
     13 H8           4.1710     2.5540    -2.4380 hc         1 UNL       0.038700
     14 C4           6.0750     1.5360    -2.4560 c3         1 UNL      -0.080400
     15 H9           6.4590     2.0280    -1.5540 hc         1 UNL       0.038700
     16 H10          6.4570     0.5090    -2.4530 hc         1 UNL       0.038700
     17 C5           6.5910     2.2620    -3.6850 c3         1 UNL      -0.092100
     18 H11          6.2440     1.7740    -4.6010 hc         1 UNL       0.032700
     19 H12          6.2460     3.3010    -3.6980 hc         1 UNL       0.032700
     20 H13          7.6860     2.2660    -3.6940 hc         1 UNL       0.032700
@<TRIPOS>BOND
     1     1     2 1   
     2     2     3 1   
     3     2     4 1   
     4     2     5 1   
     5     5     6 1   
     6     5     7 1   
     7     5     8 1   
     8     8     9 1   
     9     8    10 1   
    10     8    11 1   
    11    11    12 1   
    12    11    13 1   
    13    11    14 1   
    14    14    15 1   
    15    14    16 1   
    16    14    17 1   
    17    17    18 1   
    18    17    19 1   
    19    17    20 1   
@<TRIPOS>SUBSTRUCTURE
     1 UNL         1 TEMP              0 ****  ****    0 ROOT
