@<TRIPOS>MOLECULE
temp/c=cc1ccccc1_c=c_4.pdb
   46    47     1     0     0
SMALL
bcc


@<TRIPOS>ATOM
      1 C           -3.9130     0.5750    -5.4690 c3         1 UNL      -0.089100
      2 C1          -4.3680     1.2400    -4.1640 c3         1 UNL      -0.021400
      3 C2          -5.2660     2.4410    -4.4230 ca         1 UNL      -0.070300
      4 C3          -6.5560     2.4880    -3.8690 ca         1 UNL      -0.129000
      5 C4          -7.3970     3.5810    -4.1020 ca         1 UNL      -0.129000
      6 C5          -6.9590     4.6480    -4.8820 ca         1 UNL      -0.134000
      7 C6          -5.6880     4.6120    -5.4460 ca         1 UNL      -0.129000
      8 C7          -4.8560     3.5130    -5.2300 ca         1 UNL      -0.129000
      9 H           -4.7790     0.2860    -6.0760 hc         1 UNL       0.036700
     10 H1          -3.3350    -0.3320    -5.2590 hc         1 UNL       0.036700
     11 H2          -4.9820     0.4870    -3.6500 hc         1 UNL       0.048700
     12 H3          -6.9250     1.6670    -3.2600 ha         1 UNL       0.131500
     13 H4          -8.3970     3.5980    -3.6770 ha         1 UNL       0.129500
     14 H5          -7.6080     5.5020    -5.0570 ha         1 UNL       0.130000
     15 H6          -5.3410     5.4380    -6.0620 ha         1 UNL       0.129500
     16 H7          -3.8780     3.5060    -5.7030 ha         1 UNL       0.131500
     17 H8          -3.2930     1.2330    -6.0850 hc         1 UNL       0.036700
     18 C8          -3.1880     1.5280    -3.2010 c3         1 UNL      -0.069400
     19 C9          -2.0620     2.4060    -3.7610 c3         1 UNL      -0.084400
     20 H9          -3.5730     1.9840    -2.2800 hc         1 UNL       0.039200
     21 H10         -2.7670     0.5600    -2.9080 hc         1 UNL       0.039200
     22 H11         -1.6750     1.9930    -4.6980 hc         1 UNL       0.048700
     23 H12         -2.4600     3.3970    -3.9980 hc         1 UNL       0.048700
     24 C10         -0.9040     2.6410    -2.7840 c3         1 UNL      -0.070400
     25 C11         -0.1130     1.3940    -2.3120 c3         1 UNL      -0.023400
     26 C12          0.3050     0.5130    -3.4920 ca         1 UNL      -0.071300
     27 C13         -0.2550    -0.7740    -3.6400 ca         1 UNL      -0.128000
     28 C14         -0.0760    -1.5120    -4.8150 ca         1 UNL      -0.129000
     29 C15          0.6860    -0.9860    -5.8500 ca         1 UNL      -0.134000
     30 C16          1.3110     0.2500    -5.6920 ca         1 UNL      -0.129000
     31 C17          1.1310     0.9860    -4.5190 ca         1 UNL      -0.128000
     32 H13         -0.2100     3.3520    -3.2520 hc         1 UNL       0.043200
     33 H14         -1.3220     3.1530    -1.9100 hc         1 UNL       0.043200
     34 H15         -0.7820     0.8050    -1.6710 hc         1 UNL       0.054700
     35 H16         -0.8790    -1.1920    -2.8540 ha         1 UNL       0.131000
     36 H17         -0.5600    -2.4790    -4.9270 ha         1 UNL       0.129500
     37 H18          0.7860    -1.5370    -6.7870 ha         1 UNL       0.130000
     38 H19          1.9210     0.6510    -6.5010 ha         1 UNL       0.129500
     39 H20          1.6040     1.9650    -4.4400 ha         1 UNL       0.131000
     40 C18          1.0830     1.8160    -1.4170 c3         1 UNL      -0.076400
     41 C19          0.6920     2.7330    -0.2560 c3         1 UNL      -0.093100
     42 H21          1.5570     0.9180    -1.0030 hc         1 UNL       0.043200
     43 H22          1.8490     2.3290    -2.0100 hc         1 UNL       0.043200
     44 H23         -0.1310     2.3120     0.3300 hc         1 UNL       0.033367
     45 H24          1.5430     2.8870     0.4150 hc         1 UNL       0.033367
     46 H25          0.3880     3.7250    -0.6110 hc         1 UNL       0.033367
@<TRIPOS>BOND
     1     1     2 1   
     2     1     9 1   
     3     1    10 1   
     4     1    17 1   
     5     2     3 1   
     6     2    11 1   
     7     2    18 1   
     8     3     4 ar  
     9     3     8 ar  
    10     4     5 ar  
    11     4    12 1   
    12     5     6 ar  
    13     5    13 1   
    14     6     7 ar  
    15     6    14 1   
    16     7     8 ar  
    17     7    15 1   
    18     8    16 1   
    19    18    19 1   
    20    18    20 1   
    21    18    21 1   
    22    19    22 1   
    23    19    23 1   
    24    19    24 1   
    25    24    32 1   
    26    24    33 1   
    27    25    34 1   
    28    25    40 1   
    29    26    27 ar  
    30    26    31 ar  
    31    27    28 ar  
    32    27    35 1   
    33    28    29 ar  
    34    28    36 1   
    35    29    30 ar  
    36    29    37 1   
    37    30    31 ar  
    38    30    38 1   
    39    31    39 1   
    40    40    41 1   
    41    40    42 1   
    42    40    43 1   
    43    41    44 1   
    44    41    45 1   
    45    41    46 1   
    46    25    26 1   
    47    25    24 1   
@<TRIPOS>SUBSTRUCTURE
     1 UNL         1 TEMP              0 ****  ****    0 ROOT
