@<TRIPOS>MOLECULE
styrene.pdb
   16    16     1     0     0
SMALL
bcc


@<TRIPOS>ATOM
      1 C            0.9890     0.0510     0.1960 c2         1 UNL      -0.209000
      2 C1           0.2310     1.0330    -0.3090 ce         1 UNL      -0.113200
      3 C2          -1.2360     1.0880    -0.2340 ca         1 UNL      -0.057800
      4 C3          -1.9580     0.5300     0.8300 ca         1 UNL      -0.118500
      5 C4          -3.3510     0.6310     0.8790 ca         1 UNL      -0.131000
      6 C5          -4.0390     1.3010    -0.1300 ca         1 UNL      -0.127000
      7 C6          -3.3340     1.8730    -1.1860 ca         1 UNL      -0.131000
      8 C7          -1.9400     1.7720    -1.2350 ca         1 UNL      -0.118500
      9 H            0.5690    -0.8090     0.7070 ha         1 UNL       0.113500
     10 H1           2.0690     0.0840     0.0920 ha         1 UNL       0.113500
     11 H2           0.7140     1.8550    -0.8330 ha         1 UNL       0.123000
     12 H3          -1.4450     0.0200     1.6410 ha         1 UNL       0.131500
     13 H4          -3.8970     0.1910     1.7100 ha         1 UNL       0.131000
     14 H5          -5.1220     1.3810    -0.0910 ha         1 UNL       0.131000
     15 H6          -3.8660     2.4010    -1.9720 ha         1 UNL       0.131000
     16 H7          -1.4100     2.2260    -2.0680 ha         1 UNL       0.131500
@<TRIPOS>BOND
     1     1     2 2   
     2     1     9 1   
     3     1    10 1   
     4     2     3 1   
     5     2    11 1   
     6     3     4 ar  
     7     3     8 ar  
     8     4     5 ar  
     9     4    12 1   
    10     5     6 ar  
    11     5    13 1   
    12     6     7 ar  
    13     6    14 1   
    14     7     8 ar  
    15     7    15 1   
    16     8    16 1   
@<TRIPOS>SUBSTRUCTURE
     1 UNL         1 TEMP              0 ****  ****    0 ROOT
