@<TRIPOS>MOLECULE
input/solvents/pdb/hexane.pdb
   20    19     1     0     0
SMALL
bcc


@<TRIPOS>ATOM
      1 H            1.0010    -0.1050    -0.0550 hc         1 UNL       0.032700
      2 C            2.0950    -0.0960    -0.0510 c3         1 UNL      -0.092100
      3 H1           2.4420    -0.9870     0.4830 hc         1 UNL       0.032700
      4 H2           2.4420    -0.1610    -1.0870 hc         1 UNL       0.032700
      5 C1           2.6120     1.1670     0.6140 c3         1 UNL      -0.080400
      6 H3           2.2280     2.0440     0.0770 hc         1 UNL       0.038700
      7 H4           2.2280     1.2220     1.6390 hc         1 UNL       0.038700
      8 C2           4.1390     1.1920     0.6270 c3         1 UNL      -0.079400
      9 H5           4.5170     0.3110     1.1600 hc         1 UNL       0.038700
     10 H6           4.5170     1.1350    -0.4010 hc         1 UNL       0.038700
     11 C3           4.6630     2.4600     1.2960 c3         1 UNL      -0.079400
     12 H7           4.2850     3.3410     0.7640 hc         1 UNL       0.038700
     13 H8           4.2870     2.5170     2.3240 hc         1 UNL       0.038700
     14 C4           6.1910     2.4860     1.3070 c3         1 UNL      -0.080400
     15 H9           6.5760     1.6090     1.8420 hc         1 UNL       0.038700
     16 H10          6.5730     2.4340     0.2810 hc         1 UNL       0.038700
     17 C5           6.7070     3.7480     1.9740 c3         1 UNL      -0.092100
     18 H11          6.3600     4.6400     1.4420 hc         1 UNL       0.032700
     19 H12          6.3620     3.8110     3.0110 hc         1 UNL       0.032700
     20 H13          7.8020     3.7580     1.9770 hc         1 UNL       0.032700
@<TRIPOS>BOND
     1     1     2 1   
     2     2     3 1   
     3     2     4 1   
     4     2     5 1   
     5     5     6 1   
     6     5     7 1   
     7     5     8 1   
     8     8     9 1   
     9     8    10 1   
    10     8    11 1   
    11    11    12 1   
    12    11    13 1   
    13    11    14 1   
    14    14    15 1   
    15    14    16 1   
    16    14    17 1   
    17    17    18 1   
    18    17    19 1   
    19    17    20 1   
@<TRIPOS>SUBSTRUCTURE
     1 UNL         1 TEMP              0 ****  ****    0 ROOT
