@<TRIPOS>MOLECULE
temp/c=cc1ccccc1_c=c_4.pdb
   46    47     1     0     0
SMALL
bcc


@<TRIPOS>ATOM
      1 C           -5.0670     4.5020     3.5820 c3         1 UNL      -0.087100
      2 C1          -4.5220     4.1980     2.1800 c3         1 UNL      -0.023400
      3 C2          -5.6050     3.8000     1.1840 ca         1 UNL      -0.074300
      4 C3          -5.4370     4.1320    -0.1720 ca         1 UNL      -0.127000
      5 C4          -6.4040     3.7890    -1.1200 ca         1 UNL      -0.129000
      6 C5          -7.5520     3.1060    -0.7280 ca         1 UNL      -0.133000
      7 C6          -7.7260     2.7550     0.6090 ca         1 UNL      -0.129000
      8 C7          -6.7560     3.0910     1.5560 ca         1 UNL      -0.127000
      9 H           -5.9180     5.1890     3.5340 hc         1 UNL       0.036700
     10 H1          -4.3030     4.9780     4.2050 hc         1 UNL       0.036700
     11 H2          -4.0800     5.1360     1.8150 hc         1 UNL       0.053700
     12 H3          -4.5460     4.6640    -0.4980 ha         1 UNL       0.130500
     13 H4          -6.2610     4.0570    -2.1630 ha         1 UNL       0.130000
     14 H5          -8.3090     2.8450    -1.4620 ha         1 UNL       0.130000
     15 H6          -8.6190     2.2180     0.9160 ha         1 UNL       0.130000
     16 H7          -6.9190     2.7930     2.5890 ha         1 UNL       0.130500
     17 H8          -5.3900     3.5920     4.0980 hc         1 UNL       0.036700
     18 C8          -3.4190     3.1200     2.2100 c3         1 UNL      -0.074400
     19 C9          -2.1810     3.5550     3.0030 c3         1 UNL      -0.082400
     20 H9          -3.8130     2.1860     2.6300 hc         1 UNL       0.042700
     21 H10         -3.1270     2.8920     1.1790 hc         1 UNL       0.042700
     22 H11         -1.8160     4.5190     2.6300 hc         1 UNL       0.044700
     23 H12         -2.4580     3.7180     4.0510 hc         1 UNL       0.044700
     24 C10         -1.0500     2.5160     2.9940 c3         1 UNL      -0.071400
     25 C11         -0.4590     2.1740     1.6050 c3         1 UNL      -0.023400
     26 C12         -0.0070     3.4340     0.8740 ca         1 UNL      -0.072300
     27 C13         -0.6900     3.8590    -0.2770 ca         1 UNL      -0.128000
     28 C14         -0.3600     5.0670    -0.8950 ca         1 UNL      -0.129000
     29 C15          0.6640     5.8590    -0.3790 ca         1 UNL      -0.134000
     30 C16          1.3670     5.4410     0.7480 ca         1 UNL      -0.129000
     31 C17          1.0330     4.2370     1.3710 ca         1 UNL      -0.128000
     32 H13         -0.2510     2.8770     3.6540 hc         1 UNL       0.042700
     33 H14         -1.4430     1.6040     3.4590 hc         1 UNL       0.042700
     34 H15         -1.2490     1.6930     1.0120 hc         1 UNL       0.056700
     35 H16         -1.5040     3.2640    -0.6860 ha         1 UNL       0.131500
     36 H17         -0.9140     5.3960    -1.7710 ha         1 UNL       0.130000
     37 H18          0.9100     6.8050    -0.8550 ha         1 UNL       0.130000
     38 H19          2.1670     6.0590     1.1500 ha         1 UNL       0.130000
     39 H20          1.5770     3.9420     2.2650 ha         1 UNL       0.131500
     40 C18          0.6920     1.1430     1.6990 c3         1 UNL      -0.076400
     41 C19          0.3040    -0.1510     2.4060 c3         1 UNL      -0.093100
     42 H21          1.0280     0.8940     0.6840 hc         1 UNL       0.043200
     43 H22          1.5580     1.5700     2.2160 hc         1 UNL       0.043200
     44 H23         -0.5940    -0.5920     1.9630 hc         1 UNL       0.033700
     45 H24          1.1170    -0.8800     2.3290 hc         1 UNL       0.033700
     46 H25          0.1230     0.0150     3.4720 hc         1 UNL       0.033700
@<TRIPOS>BOND
     1     1     2 1   
     2     1     9 1   
     3     1    10 1   
     4     1    17 1   
     5     2     3 1   
     6     2    11 1   
     7     2    18 1   
     8     3     4 ar  
     9     3     8 ar  
    10     4     5 ar  
    11     4    12 1   
    12     5     6 ar  
    13     5    13 1   
    14     6     7 ar  
    15     6    14 1   
    16     7     8 ar  
    17     7    15 1   
    18     8    16 1   
    19    18    19 1   
    20    18    20 1   
    21    18    21 1   
    22    19    22 1   
    23    19    23 1   
    24    19    24 1   
    25    24    32 1   
    26    24    33 1   
    27    25    34 1   
    28    25    40 1   
    29    26    27 ar  
    30    26    31 ar  
    31    27    28 ar  
    32    27    35 1   
    33    28    29 ar  
    34    28    36 1   
    35    29    30 ar  
    36    29    37 1   
    37    30    31 ar  
    38    30    38 1   
    39    31    39 1   
    40    40    41 1   
    41    40    42 1   
    42    40    43 1   
    43    41    44 1   
    44    41    45 1   
    45    41    46 1   
    46    25    26 1   
    47    25    24 1   
@<TRIPOS>SUBSTRUCTURE
     1 UNL         1 TEMP              0 ****  ****    0 ROOT
