@<TRIPOS>MOLECULE
input/solvents/pdb/hexane.pdb
   20    19     1     0     0
SMALL
bcc


@<TRIPOS>ATOM
      1 H            0.8670    -0.0730     0.0040 hc         1 UNL       0.032700
      2 C            1.9620    -0.0670    -0.0040 c3         1 UNL      -0.092100
      3 H1           2.3080     0.3580     0.9430 hc         1 UNL       0.032700
      4 H2           2.3080    -1.1040    -0.0620 hc         1 UNL       0.032700
      5 C1           2.4780     0.7420    -1.1810 c3         1 UNL      -0.080400
      6 H3           2.0950     0.3120    -2.1140 hc         1 UNL       0.038700
      7 H4           2.0950     1.7660    -1.1140 hc         1 UNL       0.038700
      8 C2           4.0060     0.7570    -1.2040 c3         1 UNL      -0.079400
      9 H5           4.3830     1.1850    -0.2670 hc         1 UNL       0.038700
     10 H6           4.3830    -0.2700    -1.2650 hc         1 UNL       0.038700
     11 C3           4.5300     1.5680    -2.3860 c3         1 UNL      -0.079400
     12 H7           4.1510     1.1410    -3.3220 hc         1 UNL       0.038700
     13 H8           4.1540     2.5960    -2.3240 hc         1 UNL       0.038700
     14 C4           6.0580     1.5820    -2.4100 c3         1 UNL      -0.080400
     15 H9           6.4420     2.0120    -1.4780 hc         1 UNL       0.038700
     16 H10          6.4400     0.5570    -2.4770 hc         1 UNL       0.038700
     17 C5           6.5740     2.3890    -3.5870 c3         1 UNL      -0.092100
     18 H11          6.2270     1.9640    -4.5350 hc         1 UNL       0.032700
     19 H12          6.2290     3.4270    -3.5300 hc         1 UNL       0.032700
     20 H13          7.6690     2.3940    -3.5970 hc         1 UNL       0.032700
@<TRIPOS>BOND
     1     1     2 1   
     2     2     3 1   
     3     2     4 1   
     4     2     5 1   
     5     5     6 1   
     6     5     7 1   
     7     5     8 1   
     8     8     9 1   
     9     8    10 1   
    10     8    11 1   
    11    11    12 1   
    12    11    13 1   
    13    11    14 1   
    14    14    15 1   
    15    14    16 1   
    16    14    17 1   
    17    17    18 1   
    18    17    19 1   
    19    17    20 1   
@<TRIPOS>SUBSTRUCTURE
     1 UNL         1 TEMP              0 ****  ****    0 ROOT
