@<TRIPOS>MOLECULE
styrene.pdb
   16    16     1     0     0
SMALL
bcc


@<TRIPOS>ATOM
      1 C            1.0040    -0.1970    -0.0490 c2         1 UNL      -0.209000
      2 C1           0.2600    -0.9370     0.7850 ce         1 UNL      -0.113200
      3 C2          -1.2060    -1.0120     0.7380 ca         1 UNL      -0.057800
      4 C3          -1.9220    -0.8580    -0.4570 ca         1 UNL      -0.118500
      5 C4          -3.3130    -0.9700    -0.4760 ca         1 UNL      -0.131000
      6 C5          -4.0060    -1.2500     0.7000 ca         1 UNL      -0.127000
      7 C6          -3.3070    -1.4180     1.8930 ca         1 UNL      -0.131000
      8 C7          -1.9140    -1.3040     1.9120 ca         1 UNL      -0.118500
      9 H            0.5690     0.4240    -0.8240 ha         1 UNL       0.113500
     10 H1           2.0860    -0.1900     0.0360 ha         1 UNL       0.113500
     11 H2           0.7500    -1.5220     1.5600 ha         1 UNL       0.123000
     12 H3          -1.4050    -0.6580    -1.3910 ha         1 UNL       0.131500
     13 H4          -3.8530    -0.8460    -1.4110 ha         1 UNL       0.131000
     14 H5          -5.0880    -1.3430     0.6830 ha         1 UNL       0.131000
     15 H6          -3.8450    -1.6400     2.8110 ha         1 UNL       0.131000
     16 H7          -1.3880    -1.4390     2.8540 ha         1 UNL       0.131500
@<TRIPOS>BOND
     1     1     2 2   
     2     1     9 1   
     3     1    10 1   
     4     2     3 1   
     5     2    11 1   
     6     3     4 ar  
     7     3     8 ar  
     8     4     5 ar  
     9     4    12 1   
    10     5     6 ar  
    11     5    13 1   
    12     6     7 ar  
    13     6    14 1   
    14     7     8 ar  
    15     7    15 1   
    16     8    16 1   
@<TRIPOS>SUBSTRUCTURE
     1 UNL         1 TEMP              0 ****  ****    0 ROOT
