@<TRIPOS>MOLECULE
temp/c=cc1ccccc1_5.pdb
   82    86     1     0     0
SMALL
bcc


@<TRIPOS>ATOM
      1 C           -0.1840     4.9500    -3.2650 c3         1 UNL      -0.073400
      2 C1          -1.0810     3.9570    -3.9980 c3         1 UNL      -0.045100
      3 C2          -1.1220     4.2170    -5.4990 ca         1 UNL      -0.075300
      4 C3          -0.7480     3.2110    -6.3990 ca         1 UNL      -0.130500
      5 C4          -0.8920     3.3930    -7.7780 ca         1 UNL      -0.128000
      6 C5          -1.4010     4.5890    -8.2810 ca         1 UNL      -0.134000
      7 C6          -1.7310     5.6180    -7.4040 ca         1 UNL      -0.128000
      8 C7          -1.5920     5.4350    -6.0240 ca         1 UNL      -0.130500
      9 H           -0.5860     5.9380    -3.5220 hc         1 UNL       0.048700
     10 H1           0.8260     4.9100    -3.6890 hc         1 UNL       0.048700
     11 H2          -0.7440     2.9340    -3.8050 hc         1 UNL       0.053700
     12 H3          -0.3570     2.2640    -6.0330 ha         1 UNL       0.130500
     13 H4          -0.6250     2.5910    -8.4620 ha         1 UNL       0.130500
     14 H5          -1.5430     4.7150    -9.3510 ha         1 UNL       0.130000
     15 H6          -2.1150     6.5580    -7.7940 ha         1 UNL       0.130500
     16 H7          -1.8740     6.2540    -5.3660 ha         1 UNL       0.130500
     17 C8           0.4040     3.5130    -1.1020 c3         1 UNL      -0.074400
     18 C9          -0.1230     4.8720    -1.7070 c3         1 UNL      -0.019400
     19 C10          0.4530     6.1750    -1.1140 ca         1 UNL      -0.071300
     20 C11          0.9300     7.2240    -1.9310 ca         1 UNL      -0.128500
     21 C12          1.2140     8.4920    -1.4210 ca         1 UNL      -0.127500
     22 C13          1.0780     8.7340    -0.0630 ca         1 UNL      -0.133000
     23 C14          0.6820     7.6980     0.7810 ca         1 UNL      -0.127500
     24 C15          0.3660     6.4330     0.2620 ca         1 UNL      -0.128500
     25 H8           0.4100     3.5710    -0.0070 hc         1 UNL       0.053700
     26 H9          -0.3610     2.7710    -1.3610 hc         1 UNL       0.053700
     27 H10         -1.1790     4.9110    -1.3930 hc         1 UNL       0.052700
     28 H11          1.0630     7.1000    -3.0020 ha         1 UNL       0.131000
     29 H12          1.5220     9.2870    -2.0960 ha         1 UNL       0.129500
     30 H13          1.2780     9.7250     0.3330 ha         1 UNL       0.130000
     31 H14          0.5930     7.8850     1.8470 ha         1 UNL       0.129500
     32 H15          0.0180     5.6670     0.9500 ha         1 UNL       0.131000
     33 C16          1.9570     1.4000    -1.5650 c3         1 UNL      -0.067400
     34 C17          1.7650     2.9650    -1.6010 c3         1 UNL      -0.019400
     35 C18          2.9340     3.8240    -1.1510 ca         1 UNL      -0.065300
     36 C19          3.4680     4.7690    -2.0500 ca         1 UNL      -0.130000
     37 C20          4.4360     5.6910    -1.6500 ca         1 UNL      -0.129500
     38 C21          4.9160     5.6650    -0.3470 ca         1 UNL      -0.133000
     39 C22          4.4290     4.7180     0.5540 ca         1 UNL      -0.129500
     40 C23          3.4330     3.8120     0.1550 ca         1 UNL      -0.130000
     41 H16          1.0560     0.9460    -2.0000 hc         1 UNL       0.044700
     42 H17          2.7380     1.2680    -2.3210 hc         1 UNL       0.044700
     43 H18          1.7100     3.1180    -2.6880 hc         1 UNL       0.058700
     44 H19          3.0870     4.8380    -3.0670 ha         1 UNL       0.131500
     45 H20          4.7860     6.4460    -2.3480 ha         1 UNL       0.129500
     46 H21          5.6550     6.3910    -0.0260 ha         1 UNL       0.130000
     47 H22          4.7940     4.7070     1.5720 ha         1 UNL       0.129500
     48 H23          3.0300     3.1230     0.8960 ha         1 UNL       0.131500
     49 C24          2.7850    -0.9660    -0.8830 c3         1 UNL      -0.070400
     50 C25          2.4140     0.4980    -0.3630 c3         1 UNL      -0.026400
     51 C26          1.4520     0.2840     0.8170 ca         1 UNL      -0.070300
     52 C27          1.9290    -0.3290     2.0010 ca         1 UNL      -0.133500
     53 C28          1.0720    -0.6480     3.0590 ca         1 UNL      -0.128000
     54 C29         -0.2830    -0.3570     2.9690 ca         1 UNL      -0.135000
     55 C30         -0.7740     0.2550     1.8170 ca         1 UNL      -0.128000
     56 C31          0.0820     0.5530     0.7500 ca         1 UNL      -0.133500
     57 H24          3.2360    -1.5180    -0.0470 hc         1 UNL       0.048200
     58 H25          1.8530    -1.5000    -1.1190 hc         1 UNL       0.048200
     59 H26          3.3270     0.9370     0.0550 hc         1 UNL       0.068700
     60 H27          2.9790    -0.6010     2.0930 ha         1 UNL       0.132500
     61 H28          1.4550    -1.1670     3.9370 ha         1 UNL       0.132000
     62 H29         -0.9540    -0.6110     3.7860 ha         1 UNL       0.131000
     63 H30         -1.8350     0.4840     1.7440 ha         1 UNL       0.132000
     64 H31         -0.3610     0.9700    -0.1480 ha         1 UNL       0.132500
     65 C32          5.0940    -0.4330    -1.8190 c3         1 UNL      -0.087100
     66 C33          3.7410    -1.0940    -2.1030 c3         1 UNL      -0.024400
     67 C34          4.0120    -2.5170    -2.6060 ca         1 UNL      -0.074300
     68 C35          4.2500    -2.7170    -3.9800 ca         1 UNL      -0.128000
     69 C36          4.6420    -3.9650    -4.4770 ca         1 UNL      -0.129000
     70 C37          4.7990    -5.0400    -3.6100 ca         1 UNL      -0.134000
     71 C38          4.5450    -4.8680    -2.2510 ca         1 UNL      -0.129000
     72 C39          4.1550    -3.6190    -1.7510 ca         1 UNL      -0.128000
     73 H32          5.6570    -0.9920    -1.0630 hc         1 UNL       0.037700
     74 H33          5.7080    -0.3980    -2.7270 hc         1 UNL       0.037700
     75 H34          3.2610    -0.5790    -2.9420 hc         1 UNL       0.058700
     76 H35          4.1620    -1.8870    -4.6780 ha         1 UNL       0.131500
     77 H36          4.8440    -4.0900    -5.5380 ha         1 UNL       0.130000
     78 H37          5.1280    -6.0040    -3.9880 ha         1 UNL       0.130000
     79 H38          4.6720    -5.7080    -1.5710 ha         1 UNL       0.130000
     80 H39          3.9960    -3.5210    -0.6810 ha         1 UNL       0.131500
     81 H40          4.9810     0.5950    -1.4660 hc         1 UNL       0.037700
     82 H41         -2.1090     4.0320    -3.6230 hc         1 UNL       0.053700
@<TRIPOS>BOND
     1     1     2 1   
     2     1     9 1   
     3     1    10 1   
     4     1    18 1   
     5     2     3 1   
     6     2    11 1   
     7     2    82 1   
     8     3     4 ar  
     9     3     8 ar  
    10     4     5 ar  
    11     4    12 1   
    12     5     6 ar  
    13     5    13 1   
    14     6     7 ar  
    15     6    14 1   
    16     7     8 ar  
    17     7    15 1   
    18     8    16 1   
    19    17    18 1   
    20    17    25 1   
    21    17    26 1   
    22    18    19 1   
    23    18    27 1   
    24    19    20 ar  
    25    19    24 ar  
    26    20    21 ar  
    27    20    28 1   
    28    21    22 ar  
    29    21    29 1   
    30    22    23 ar  
    31    22    30 1   
    32    23    24 ar  
    33    23    31 1   
    34    24    32 1   
    35    33    41 1   
    36    33    42 1   
    37    34    35 1   
    38    34    43 1   
    39    35    36 ar  
    40    35    40 ar  
    41    36    37 ar  
    42    36    44 1   
    43    37    38 ar  
    44    37    45 1   
    45    38    39 ar  
    46    38    46 1   
    47    39    40 ar  
    48    39    47 1   
    49    40    48 1   
    50    49    57 1   
    51    49    58 1   
    52    49    66 1   
    53    50    51 1   
    54    50    59 1   
    55    51    52 ar  
    56    51    56 ar  
    57    52    53 ar  
    58    52    60 1   
    59    53    54 ar  
    60    53    61 1   
    61    54    55 ar  
    62    54    62 1   
    63    55    56 ar  
    64    55    63 1   
    65    56    64 1   
    66    65    66 1   
    67    65    73 1   
    68    65    74 1   
    69    65    81 1   
    70    66    67 1   
    71    66    75 1   
    72    67    68 ar  
    73    67    72 ar  
    74    68    69 ar  
    75    68    76 1   
    76    69    70 ar  
    77    69    77 1   
    78    70    71 ar  
    79    70    78 1   
    80    71    72 ar  
    81    71    79 1   
    82    72    80 1   
    83    34    33 1   
    84    34    17 1   
    85    50    49 1   
    86    50    33 1   
@<TRIPOS>SUBSTRUCTURE
     1 UNL         1 TEMP              0 ****  ****    0 ROOT
