@<TRIPOS>MOLECULE
input/solvents/pdb/hexane.pdb
   20    19     1     0     0
SMALL
bcc


@<TRIPOS>ATOM
      1 H            1.0420    -0.0090    -0.0680 hc         1 UNL       0.032700
      2 C            2.1370    -0.0060    -0.0580 c3         1 UNL      -0.092100
      3 H1           2.4830    -0.9970    -0.3710 hc         1 UNL       0.032700
      4 H2           2.4830     0.7270    -0.7940 hc         1 UNL       0.032700
      5 C1           2.6540     0.3340     1.3290 c3         1 UNL      -0.080400
      6 H3           2.2700     1.3160     1.6290 hc         1 UNL       0.038700
      7 H4           2.2700    -0.3980     2.0490 hc         1 UNL       0.038700
      8 C2           4.1810     0.3400     1.3560 c3         1 UNL      -0.079400
      9 H5           4.5590    -0.6430     1.0490 hc         1 UNL       0.038700
     10 H6           4.5590     1.0720     0.6310 hc         1 UNL       0.038700
     11 C3           4.7050     0.6800     2.7480 c3         1 UNL      -0.079400
     12 H7           4.3270     1.6620     3.0550 hc         1 UNL       0.038700
     13 H8           4.3290    -0.0530     3.4730 hc         1 UNL       0.038700
     14 C4           6.2330     0.6880     2.7750 c3         1 UNL      -0.080400
     15 H9           6.6170    -0.2930     2.4730 hc         1 UNL       0.038700
     16 H10          6.6150     1.4220     2.0560 hc         1 UNL       0.038700
     17 C5           6.7490     1.0260     4.1620 c3         1 UNL      -0.092100
     18 H11          6.4020     2.0150     4.4770 hc         1 UNL       0.032700
     19 H12          6.4040     0.2910     4.8970 hc         1 UNL       0.032700
     20 H13          7.8440     1.0300     4.1710 hc         1 UNL       0.032700
@<TRIPOS>BOND
     1     1     2 1   
     2     2     3 1   
     3     2     4 1   
     4     2     5 1   
     5     5     6 1   
     6     5     7 1   
     7     5     8 1   
     8     8     9 1   
     9     8    10 1   
    10     8    11 1   
    11    11    12 1   
    12    11    13 1   
    13    11    14 1   
    14    14    15 1   
    15    14    16 1   
    16    14    17 1   
    17    17    18 1   
    18    17    19 1   
    19    17    20 1   
@<TRIPOS>SUBSTRUCTURE
     1 UNL         1 TEMP              0 ****  ****    0 ROOT
