@<TRIPOS>MOLECULE
input/solvents/pdb/hexane.pdb
   20    19     1     0     0
SMALL
bcc


@<TRIPOS>ATOM
      1 H            0.9380     0.0940    -0.0190 hc         1 UNL       0.032700
      2 C            2.0330     0.0910    -0.0280 c3         1 UNL      -0.092100
      3 H1           2.3790     1.1050     0.1990 hc         1 UNL       0.032700
      4 H2           2.3790    -0.5760     0.7680 hc         1 UNL       0.032700
      5 C1           2.5490    -0.3670    -1.3800 c3         1 UNL      -0.080400
      6 H3           2.1660    -1.3710    -1.5950 hc         1 UNL       0.038700
      7 H4           2.1660     0.3000    -2.1610 hc         1 UNL       0.038700
      8 C2           4.0770    -0.3760    -1.4070 c3         1 UNL      -0.079400
      9 H5           4.4540     0.6300    -1.1890 hc         1 UNL       0.038700
     10 H6           4.4540    -1.0400    -0.6200 hc         1 UNL       0.038700
     11 C3           4.6010    -0.8380    -2.7640 c3         1 UNL      -0.079400
     12 H7           4.2250    -1.8450    -2.9810 hc         1 UNL       0.038700
     13 H8           4.2220    -0.1740    -3.5500 hc         1 UNL       0.038700
     14 C4           6.1280    -0.8450    -2.7910 c3         1 UNL      -0.080400
     15 H9           6.5110     0.1610    -2.5780 hc         1 UNL       0.038700
     16 H10          6.5130    -1.5100    -2.0090 hc         1 UNL       0.038700
     17 C5           6.6450    -1.3050    -4.1420 c3         1 UNL      -0.092100
     18 H11          6.3000    -2.3190    -4.3670 hc         1 UNL       0.032700
     19 H12          6.2980    -0.6400    -4.9390 hc         1 UNL       0.032700
     20 H13          7.7400    -1.3070    -4.1520 hc         1 UNL       0.032700
@<TRIPOS>BOND
     1     1     2 1   
     2     2     3 1   
     3     2     4 1   
     4     2     5 1   
     5     5     6 1   
     6     5     7 1   
     7     5     8 1   
     8     8     9 1   
     9     8    10 1   
    10     8    11 1   
    11    11    12 1   
    12    11    13 1   
    13    11    14 1   
    14    14    15 1   
    15    14    16 1   
    16    14    17 1   
    17    17    18 1   
    18    17    19 1   
    19    17    20 1   
@<TRIPOS>SUBSTRUCTURE
     1 UNL         1 TEMP              0 ****  ****    0 ROOT
