@<TRIPOS>MOLECULE
styrene.pdb
   16    16     1     0     0
SMALL
bcc


@<TRIPOS>ATOM
      1 C            1.1210     0.2310    -0.0000 c2         1 UNL      -0.209000
      2 C1           0.3630    -0.0280    -1.0740 ce         1 UNL      -0.113200
      3 C2          -1.1050     0.0570    -1.1090 ca         1 UNL      -0.057800
      4 C3          -1.8270     0.9580    -0.3160 ca         1 UNL      -0.118500
      5 C4          -3.2200     1.0290    -0.4030 ca         1 UNL      -0.131000
      6 C5          -3.9070     0.2080    -1.2940 ca         1 UNL      -0.127000
      7 C6          -3.2010    -0.6820    -2.1000 ca         1 UNL      -0.131000
      8 C7          -1.8080    -0.7530    -2.0110 ca         1 UNL      -0.118500
      9 H            0.7010     0.5210     0.9570 ha         1 UNL       0.113500
     10 H1           2.2010     0.1390    -0.0580 ha         1 UNL       0.113500
     11 H2           0.8460    -0.3400    -1.9970 ha         1 UNL       0.123000
     12 H3          -1.3150     1.6250     0.3730 ha         1 UNL       0.131500
     13 H4          -3.7660     1.7320     0.2210 ha         1 UNL       0.131000
     14 H5          -4.9900     0.2650    -1.3630 ha         1 UNL       0.131000
     15 H6          -3.7330    -1.3210    -2.8000 ha         1 UNL       0.131000
     16 H7          -1.2770    -1.4560    -2.6500 ha         1 UNL       0.131500
@<TRIPOS>BOND
     1     1     2 2   
     2     1     9 1   
     3     1    10 1   
     4     2     3 1   
     5     2    11 1   
     6     3     4 ar  
     7     3     8 ar  
     8     4     5 ar  
     9     4    12 1   
    10     5     6 ar  
    11     5    13 1   
    12     6     7 ar  
    13     6    14 1   
    14     7     8 ar  
    15     7    15 1   
    16     8    16 1   
@<TRIPOS>SUBSTRUCTURE
     1 UNL         1 TEMP              0 ****  ****    0 ROOT
