@<TRIPOS>MOLECULE
c=c_3.pdb
 20 19 0 0 0
SMALL
GASTEIGER

@<TRIPOS>ATOM
      1  C1        -3.0040   -0.1650   -0.4190 C.3     1  UNL1       -0.0653
      2  C2        -1.5810   -0.4150    0.0740 C.3     1  UNL1       -0.0559
      3  H1        -3.4640    0.6780    0.1390 H       1  UNL1        0.0230
      4  H2        -3.6190   -1.0750   -0.2580 H       1  UNL1        0.0230
      5  H3        -1.1670   -1.2850   -0.4790 H       1  UNL1        0.0263
      6  H4        -1.6160   -0.6670    1.1560 H       1  UNL1        0.0263
      7  H5        -2.9990    0.0730   -1.5050 H       1  UNL1        0.0230
      8  C3        -0.6950    0.8200   -0.1460 C.3     1  UNL1       -0.0533
      9  C4         0.7090    0.6550    0.4550 C.3     1  UNL1       -0.0533
     10  H6        -1.1750    1.6970    0.3420 H       1  UNL1        0.0265
     11  H7        -0.6160    1.0410   -1.2330 H       1  UNL1        0.0265
     12  H8         1.2080    1.6490    0.4390 H       1  UNL1        0.0265
     13  H9         0.6290    0.3350    1.5180 H       1  UNL1        0.0265
     14  C5         1.5740   -0.3440   -0.3280 C.3     1  UNL1       -0.0559
     15  C6         2.9980   -0.3840    0.2180 C.3     1  UNL1       -0.0653
     16  H10        1.6090   -0.0530   -1.4000 H       1  UNL1        0.0263
     17  H11        1.1420   -1.3640   -0.2530 H       1  UNL1        0.0263
     18  H12        2.9930   -0.6900    1.2860 H       1  UNL1        0.0230
     19  H13        3.4760    0.6140    0.1240 H       1  UNL1        0.0230
     20  H14        3.5970   -1.1200   -0.3590 H       1  UNL1        0.0230
@<TRIPOS>BOND
     1     1     2    1
     2     1     3    1
     3     1     4    1
     4     1     7    1
     5     2     5    1
     6     2     6    1
     7     2     8    1
     8     8     9    1
     9     8    10    1
    10     8    11    1
    11     9    12    1
    12     9    13    1
    13     9    14    1
    14    14    15    1
    15    14    16    1
    16    14    17    1
    17    15    18    1
    18    15    19    1
    19    15    20    1
