@<TRIPOS>MOLECULE
styrene.pdb
   16    16     1     0     0
SMALL
bcc


@<TRIPOS>ATOM
      1 C            0.9730    -0.0350     0.1190 c2         1 UNL      -0.209000
      2 C1           0.2180     1.0320     0.4120 ce         1 UNL      -0.113200
      3 C2          -1.2490     1.0220     0.5050 ca         1 UNL      -0.057800
      4 C3          -1.9700    -0.1110     0.9070 ca         1 UNL      -0.118500
      5 C4          -3.3630    -0.0710     1.0120 ca         1 UNL      -0.131000
      6 C5          -4.0510     1.1070     0.7290 ca         1 UNL      -0.127000
      7 C6          -3.3470     2.2450     0.3440 ca         1 UNL      -0.131000
      8 C7          -1.9540     2.2040     0.2380 ca         1 UNL      -0.118500
      9 H            0.5510    -1.0120    -0.0880 ha         1 UNL       0.113500
     10 H1           2.0540     0.0560     0.0660 ha         1 UNL       0.113500
     11 H2           0.7030     1.9900     0.5840 ha         1 UNL       0.123000
     12 H3          -1.4570    -1.0360     1.1540 ha         1 UNL       0.131500
     13 H4          -3.9080    -0.9590     1.3220 ha         1 UNL       0.131000
     14 H5          -5.1340     1.1380     0.8130 ha         1 UNL       0.131000
     15 H6          -3.8810     3.1670     0.1270 ha         1 UNL       0.131000
     16 H7          -1.4240     3.1050    -0.0650 ha         1 UNL       0.131500
@<TRIPOS>BOND
     1     1     2 2   
     2     1     9 1   
     3     1    10 1   
     4     2     3 1   
     5     2    11 1   
     6     3     4 ar  
     7     3     8 ar  
     8     4     5 ar  
     9     4    12 1   
    10     5     6 ar  
    11     5    13 1   
    12     6     7 ar  
    13     6    14 1   
    14     7     8 ar  
    15     7    15 1   
    16     8    16 1   
@<TRIPOS>SUBSTRUCTURE
     1 UNL         1 TEMP              0 ****  ****    0 ROOT
