@<TRIPOS>MOLECULE
styrene.pdb
   16    16     1     0     0
SMALL
bcc


@<TRIPOS>ATOM
      1 C            1.0910     0.1140     0.1620 c2         1 UNL      -0.209000
      2 C1           0.3330     0.6610    -0.7980 ce         1 UNL      -0.113200
      3 C2          -1.1340     0.7460    -0.7650 ca         1 UNL      -0.057800
      4 C3          -1.8550     0.8560     0.4310 ca         1 UNL      -0.118500
      5 C4          -3.2480     0.9680     0.4180 ca         1 UNL      -0.131000
      6 C5          -3.9360     0.9840    -0.7920 ca         1 UNL      -0.127000
      7 C6          -3.2320     0.8910    -1.9900 ca         1 UNL      -0.131000
      8 C7          -1.8380     0.7770    -1.9760 ca         1 UNL      -0.118500
      9 H            0.6710    -0.3320     1.0570 ha         1 UNL       0.113500
     10 H1           2.1710     0.0870     0.0600 ha         1 UNL       0.113500
     11 H2           0.8180     1.0670    -1.6830 ha         1 UNL       0.123000
     12 H3          -1.3420     0.8670     1.3890 ha         1 UNL       0.131500
     13 H4          -3.7930     1.0490     1.3550 ha         1 UNL       0.131000
     14 H5          -5.0190     1.0730    -0.8020 ha         1 UNL       0.131000
     15 H6          -3.7650     0.9080    -2.9370 ha         1 UNL       0.131000
     16 H7          -1.3090     0.7060    -2.9240 ha         1 UNL       0.131500
@<TRIPOS>BOND
     1     1     2 2   
     2     1     9 1   
     3     1    10 1   
     4     2     3 1   
     5     2    11 1   
     6     3     4 ar  
     7     3     8 ar  
     8     4     5 ar  
     9     4    12 1   
    10     5     6 ar  
    11     5    13 1   
    12     6     7 ar  
    13     6    14 1   
    14     7     8 ar  
    15     7    15 1   
    16     8    16 1   
@<TRIPOS>SUBSTRUCTURE
     1 UNL         1 TEMP              0 ****  ****    0 ROOT
