@<TRIPOS>MOLECULE
input/solvents/pdb/hexane.pdb
   20    19     1     0     0
SMALL
bcc


@<TRIPOS>ATOM
      1 H            1.0280     0.0520    -0.0050 hc         1 UNL       0.032700
      2 C            2.1220     0.0520    -0.0150 c3         1 UNL      -0.092100
      3 H1           2.4690     0.9570     0.4940 hc         1 UNL       0.032700
      4 H2           2.4690    -0.8160     0.5550 hc         1 UNL       0.032700
      5 C1           2.6390     0.0030    -1.4420 c3         1 UNL      -0.080400
      6 H3           2.2560    -0.8970    -1.9370 hc         1 UNL       0.038700
      7 H4           2.2560     0.8670    -1.9970 hc         1 UNL       0.038700
      8 C2           4.1670     0.0020    -1.4700 c3         1 UNL      -0.079400
      9 H5           4.5440     0.9010    -0.9680 hc         1 UNL       0.038700
     10 H6           4.5440    -0.8620    -0.9100 hc         1 UNL       0.038700
     11 C3           4.6910    -0.0450    -2.9020 c3         1 UNL      -0.079400
     12 H7           4.3140    -0.9450    -3.4030 hc         1 UNL       0.038700
     13 H8           4.3120     0.8190    -3.4620 hc         1 UNL       0.038700
     14 C4           6.2180    -0.0440    -2.9300 c3         1 UNL      -0.080400
     15 H9           6.6010     0.8560    -2.4340 hc         1 UNL       0.038700
     16 H10          6.6030    -0.9080    -2.3760 hc         1 UNL       0.038700
     17 C5           6.7350    -0.0910    -4.3570 c3         1 UNL      -0.092100
     18 H11          6.3890    -0.9960    -4.8670 hc         1 UNL       0.032700
     19 H12          6.3870     0.7780    -4.9260 hc         1 UNL       0.032700
     20 H13          7.8290    -0.0890    -4.3670 hc         1 UNL       0.032700
@<TRIPOS>BOND
     1     1     2 1   
     2     2     3 1   
     3     2     4 1   
     4     2     5 1   
     5     5     6 1   
     6     5     7 1   
     7     5     8 1   
     8     8     9 1   
     9     8    10 1   
    10     8    11 1   
    11    11    12 1   
    12    11    13 1   
    13    11    14 1   
    14    14    15 1   
    15    14    16 1   
    16    14    17 1   
    17    17    18 1   
    18    17    19 1   
    19    17    20 1   
@<TRIPOS>SUBSTRUCTURE
     1 UNL         1 TEMP              0 ****  ****    0 ROOT
