@<TRIPOS>MOLECULE
styrene.pdb
   16    16     1     0     0
SMALL
bcc


@<TRIPOS>ATOM
      1 C            1.0440    -0.0970    -0.1270 c2         1 UNL      -0.209000
      2 C1           0.2890    -0.5050     0.9010 ce         1 UNL      -0.113200
      3 C2          -1.1790    -0.5950     0.8820 ca         1 UNL      -0.057800
      4 C3          -1.9000    -0.8700    -0.2870 ca         1 UNL      -0.118500
      5 C4          -3.2930    -0.9780    -0.2580 ca         1 UNL      -0.131000
      6 C5          -3.9810    -0.8260     0.9440 ca         1 UNL      -0.127000
      7 C6          -3.2760    -0.5670     2.1180 ca         1 UNL      -0.131000
      8 C7          -1.8820    -0.4580     2.0870 ca         1 UNL      -0.118500
      9 H            0.6230     0.2180    -1.0750 ha         1 UNL       0.113500
     10 H1           2.1250    -0.0540    -0.0300 ha         1 UNL       0.113500
     11 H2           0.7740    -0.7810     1.8350 ha         1 UNL       0.123000
     12 H3          -1.3880    -1.0140    -1.2340 ha         1 UNL       0.131500
     13 H4          -3.8390    -1.1890    -1.1730 ha         1 UNL       0.131000
     14 H5          -5.0640    -0.9120     0.9670 ha         1 UNL       0.131000
     15 H6          -3.8080    -0.4530     3.0580 ha         1 UNL       0.131000
     16 H7          -1.3520    -0.2560     3.0150 ha         1 UNL       0.131500
@<TRIPOS>BOND
     1     1     2 2   
     2     1     9 1   
     3     1    10 1   
     4     2     3 1   
     5     2    11 1   
     6     3     4 ar  
     7     3     8 ar  
     8     4     5 ar  
     9     4    12 1   
    10     5     6 ar  
    11     5    13 1   
    12     6     7 ar  
    13     6    14 1   
    14     7     8 ar  
    15     7    15 1   
    16     8    16 1   
@<TRIPOS>SUBSTRUCTURE
     1 UNL         1 TEMP              0 ****  ****    0 ROOT
