@<TRIPOS>MOLECULE
styrene.pdb
   16    16     1     0     0
SMALL
bcc


@<TRIPOS>ATOM
      1 C            1.1160    -0.1590    -0.0790 c2         1 UNL      -0.209000
      2 C1           0.3620    -0.2250     1.0270 ce         1 UNL      -0.113200
      3 C2          -1.1050    -0.3130     1.0360 ca         1 UNL      -0.057800
      4 C3          -1.8240    -0.9370     0.0080 ca         1 UNL      -0.118500
      5 C4          -3.2160    -1.0340     0.0660 ca         1 UNL      -0.131000
      6 C5          -3.9060    -0.5190     1.1610 ca         1 UNL      -0.127000
      7 C6          -3.2040     0.0920     2.1970 ca         1 UNL      -0.131000
      8 C7          -1.8110     0.1910     2.1370 ca         1 UNL      -0.118500
      9 H            0.6900    -0.1510    -1.0770 ha         1 UNL       0.113500
     10 H1           2.1970    -0.0980    -0.0050 ha         1 UNL       0.113500
     11 H2           0.8490    -0.2030     2.0000 ha         1 UNL       0.123000
     12 H3          -1.3090    -1.3660    -0.8480 ha         1 UNL       0.131500
     13 H4          -3.7590    -1.5180    -0.7420 ha         1 UNL       0.131000
     14 H5          -4.9890    -0.5990     1.2080 ha         1 UNL       0.131000
     15 H6          -3.7400     0.4900     3.0550 ha         1 UNL       0.131000
     16 H7          -1.2830     0.6720     2.9570 ha         1 UNL       0.131500
@<TRIPOS>BOND
     1     1     2 2   
     2     1     9 1   
     3     1    10 1   
     4     2     3 1   
     5     2    11 1   
     6     3     4 ar  
     7     3     8 ar  
     8     4     5 ar  
     9     4    12 1   
    10     5     6 ar  
    11     5    13 1   
    12     6     7 ar  
    13     6    14 1   
    14     7     8 ar  
    15     7    15 1   
    16     8    16 1   
@<TRIPOS>SUBSTRUCTURE
     1 UNL         1 TEMP              0 ****  ****    0 ROOT
