@<TRIPOS>MOLECULE
styrene.pdb
   16    16     1     0     0
SMALL
bcc


@<TRIPOS>ATOM
      1 C            1.0380     0.2220    -0.0210 c2         1 UNL      -0.209000
      2 C1           0.2800     0.6600    -1.0350 ce         1 UNL      -0.113200
      3 C2          -1.1870     0.7490    -1.0110 ca         1 UNL      -0.057800
      4 C3          -1.9080     0.9940     0.1650 ca         1 UNL      -0.118500
      5 C4          -3.3020     1.1030     0.1390 ca         1 UNL      -0.131000
      6 C5          -3.9890     0.9790    -1.0660 ca         1 UNL      -0.127000
      7 C6          -3.2840     0.7510    -2.2450 ca         1 UNL      -0.131000
      8 C7          -1.8920     0.6420    -2.2180 ca         1 UNL      -0.118500
      9 H            0.6190    -0.1190     0.9200 ha         1 UNL       0.113500
     10 H1           2.1180     0.1810    -0.1230 ha         1 UNL       0.113500
     11 H2           0.7630     0.9610    -1.9620 ha         1 UNL       0.123000
     12 H3          -1.3960     1.1150     1.1160 ha         1 UNL       0.131500
     13 H4          -3.8480     1.2900     1.0600 ha         1 UNL       0.131000
     14 H5          -5.0720     1.0650    -1.0860 ha         1 UNL       0.131000
     15 H6          -3.8170     0.6600    -3.1880 ha         1 UNL       0.131000
     16 H7          -1.3610     0.4640    -3.1510 ha         1 UNL       0.131500
@<TRIPOS>BOND
     1     1     2 2   
     2     1     9 1   
     3     1    10 1   
     4     2     3 1   
     5     2    11 1   
     6     3     4 ar  
     7     3     8 ar  
     8     4     5 ar  
     9     4    12 1   
    10     5     6 ar  
    11     5    13 1   
    12     6     7 ar  
    13     6    14 1   
    14     7     8 ar  
    15     7    15 1   
    16     8    16 1   
@<TRIPOS>SUBSTRUCTURE
     1 UNL         1 TEMP              0 ****  ****    0 ROOT
