@<TRIPOS>MOLECULE
styrene.pdb
 16 16 0 0 0
SMALL
GASTEIGER

@<TRIPOS>ATOM
      1 C           1.0382    0.2219   -0.0209 C.2     1  UNL1       -0.0981
      2 C           0.2800    0.6596   -1.0349 C.2     1  UNL1       -0.0617
      3 C          -1.1874    0.7493   -1.0110 C.ar    1  UNL1       -0.0256
      4 C          -1.9084    0.9943    0.1653 C.ar    1  UNL1       -0.0546
      5 C          -3.3017    1.1027    0.1390 C.ar    1  UNL1       -0.0612
      6 C          -3.9893    0.9791   -1.0658 C.ar    1  UNL1       -0.0617
      7 C          -3.2844    0.7513   -2.2454 C.ar    1  UNL1       -0.0612
      8 C          -1.8916    0.6423   -2.2182 C.ar    1  UNL1       -0.0546
      9 H           0.6191   -0.1189    0.9197 H       1  UNL1        0.0535
     10 H           2.1182    0.1806   -0.1228 H       1  UNL1        0.0535
     11 H           0.7632    0.9610   -1.9617 H       1  UNL1        0.0618
     12 H          -1.3957    1.1150    1.1159 H       1  UNL1        0.0623
     13 H          -3.8475    1.2895    1.0602 H       1  UNL1        0.0618
     14 H          -5.0725    1.0651   -1.0859 H       1  UNL1        0.0618
     15 H          -3.8173    0.6597   -3.1881 H       1  UNL1        0.0618
     16 H          -1.3610    0.4643   -3.1511 H       1  UNL1        0.0623
@<TRIPOS>BOND
     1     1     2    2
     2     1     9    1
     3     1    10    1
     4     2     3    1
     5     2    11    1
     6     3     4   ar
     7     3     8   ar
     8     4     5   ar
     9     4    12    1
    10     5     6   ar
    11     5    13    1
    12     6     7   ar
    13     6    14    1
    14     7     8   ar
    15     7    15    1
    16     8    16    1
