@<TRIPOS>MOLECULE
styrene.pdb
 16 16 0 0 0
SMALL
GASTEIGER

@<TRIPOS>ATOM
      1 C           1.0174    0.1020    0.1054 C.2     1  UNL1       -0.0981
      2 C           0.2613    0.4519   -0.9435 C.2     1  UNL1       -0.0617
      3 C          -1.2056    0.5435   -0.9287 C.ar    1  UNL1       -0.0256
      4 C          -1.9269    0.8854    0.2235 C.ar    1  UNL1       -0.0546
      5 C          -3.3199    0.9923    0.1894 C.ar    1  UNL1       -0.0612
      6 C          -4.0082    0.7702   -1.0009 C.ar    1  UNL1       -0.0617
      7 C          -3.3041    0.4450   -2.1577 C.ar    1  UNL1       -0.0612
      8 C          -1.9106    0.3374   -2.1227 C.ar    1  UNL1       -0.0546
      9 H           0.5959   -0.1581    1.0705 H       1  UNL1        0.0535
     10 H           2.0978    0.0535    0.0111 H       1  UNL1        0.0535
     11 H           0.7459    0.6745   -1.8916 H       1  UNL1        0.0618
     12 H          -1.4136    1.0839    1.1606 H       1  UNL1        0.0623
     13 H          -3.8646    1.2548    1.0925 H       1  UNL1        0.0618
     14 H          -5.0911    0.8553   -1.0273 H       1  UNL1        0.0618
     15 H          -3.8376    0.2761   -3.0894 H       1  UNL1        0.0618
     16 H          -1.3810    0.0823   -3.0377 H       1  UNL1        0.0623
@<TRIPOS>BOND
     1     1     2    2
     2     1     9    1
     3     1    10    1
     4     2     3    1
     5     2    11    1
     6     3     4   ar
     7     3     8   ar
     8     4     5   ar
     9     4    12    1
    10     5     6   ar
    11     5    13    1
    12     6     7   ar
    13     6    14    1
    14     7     8   ar
    15     7    15    1
    16     8    16    1
