@<TRIPOS>MOLECULE
styrene.pdb
 16 16 0 0 0
SMALL
GASTEIGER

@<TRIPOS>ATOM
      1 C           0.9830    0.1586   -0.1157 C.2     1  UNL1       -0.0981
      2 C           0.2263   -0.6626   -0.8555 C.2     1  UNL1       -0.0617
      3 C          -1.2412   -0.6120   -0.9330 C.ar    1  UNL1       -0.0256
      4 C          -1.9617    0.5811   -0.7876 C.ar    1  UNL1       -0.0546
      5 C          -3.3543    0.5927   -0.8985 C.ar    1  UNL1       -0.0612
      6 C          -4.0428   -0.5880   -1.1688 C.ar    1  UNL1       -0.0617
      7 C          -3.3386   -1.7783   -1.3323 C.ar    1  UNL1       -0.0612
      8 C          -1.9454   -1.7892   -1.2199 C.ar    1  UNL1       -0.0546
      9 H           0.5623    0.9393    0.5093 H       1  UNL1        0.0535
     10 H           2.0634    0.0516   -0.1082 H       1  UNL1        0.0535
     11 H           0.7107   -1.4426   -1.4387 H       1  UNL1        0.0618
     12 H          -1.4484    1.5199   -0.5966 H       1  UNL1        0.0623
     13 H          -3.8994    1.5256   -0.7795 H       1  UNL1        0.0618
     14 H          -5.1259   -0.5782   -1.2572 H       1  UNL1        0.0618
     15 H          -3.8725   -2.7002   -1.5484 H       1  UNL1        0.0618
     16 H          -1.4156   -2.7295   -1.3511 H       1  UNL1        0.0623
@<TRIPOS>BOND
     1     1     2    2
     2     1     9    1
     3     1    10    1
     4     2     3    1
     5     2    11    1
     6     3     4   ar
     7     3     8   ar
     8     4     5   ar
     9     4    12    1
    10     5     6   ar
    11     5    13    1
    12     6     7   ar
    13     6    14    1
    14     7     8   ar
    15     7    15    1
    16     8    16    1
