@<TRIPOS>MOLECULE
styrene.pdb
 16 16 0 0 0
SMALL
GASTEIGER

@<TRIPOS>ATOM
      1 C           0.9889    0.0509    0.1964 C.2     1  UNL1       -0.0981
      2 C           0.2308    1.0331   -0.3092 C.2     1  UNL1       -0.0617
      3 C          -1.2363    1.0876   -0.2338 C.ar    1  UNL1       -0.0256
      4 C          -1.9580    0.5302    0.8303 C.ar    1  UNL1       -0.0546
      5 C          -3.3512    0.6310    0.8792 C.ar    1  UNL1       -0.0612
      6 C          -4.0387    1.3007   -0.1301 C.ar    1  UNL1       -0.0617
      7 C          -3.3337    1.8733   -1.1860 C.ar    1  UNL1       -0.0612
      8 C          -1.9404    1.7715   -1.2347 C.ar    1  UNL1       -0.0546
      9 H           0.5694   -0.8094    0.7066 H       1  UNL1        0.0535
     10 H           2.0689    0.0837    0.0923 H       1  UNL1        0.0535
     11 H           0.7142    1.8546   -0.8334 H       1  UNL1        0.0618
     12 H          -1.4451    0.0197    1.6413 H       1  UNL1        0.0623
     13 H          -3.8968    0.1905    1.7095 H       1  UNL1        0.0618
     14 H          -5.1219    1.3806   -0.0908 H       1  UNL1        0.0618
     15 H          -3.8665    2.4014   -1.9725 H       1  UNL1        0.0618
     16 H          -1.4101    2.2261   -2.0681 H       1  UNL1        0.0623
@<TRIPOS>BOND
     1     1     2    2
     2     1     9    1
     3     1    10    1
     4     2     3    1
     5     2    11    1
     6     3     4   ar
     7     3     8   ar
     8     4     5   ar
     9     4    12    1
    10     5     6   ar
    11     5    13    1
    12     6     7   ar
    13     6    14    1
    14     7     8   ar
    15     7    15    1
    16     8    16    1
