@<TRIPOS>MOLECULE
styrene.pdb
 16 16 0 0 0
SMALL
GASTEIGER

@<TRIPOS>ATOM
      1 C           1.0445   -0.0967   -0.1269 C.2     1  UNL1       -0.0981
      2 C           0.2887   -0.5046    0.9015 C.2     1  UNL1       -0.0617
      3 C          -1.1786   -0.5946    0.8824 C.ar    1  UNL1       -0.0256
      4 C          -1.9002   -0.8695   -0.2868 C.ar    1  UNL1       -0.0546
      5 C          -3.2933   -0.9782   -0.2578 C.ar    1  UNL1       -0.0612
      6 C          -3.9805   -0.8257    0.9442 C.ar    1  UNL1       -0.0617
      7 C          -3.2757   -0.5674    2.1175 C.ar    1  UNL1       -0.0612
      8 C          -1.8820   -0.4576    2.0871 C.ar    1  UNL1       -0.0546
      9 H           0.6229    0.2180   -1.0755 H       1  UNL1        0.0535
     10 H           2.1249   -0.0545   -0.0302 H       1  UNL1        0.0535
     11 H           0.7739   -0.7811    1.8350 H       1  UNL1        0.0618
     12 H          -1.3881   -1.0135   -1.2344 H       1  UNL1        0.0623
     13 H          -3.8389   -1.1887   -1.1733 H       1  UNL1        0.0618
     14 H          -5.0638   -0.9122    0.9672 H       1  UNL1        0.0618
     15 H          -3.8082   -0.4525    3.0580 H       1  UNL1        0.0618
     16 H          -1.3516   -0.2558    3.0151 H       1  UNL1        0.0623
@<TRIPOS>BOND
     1     1     2    2
     2     1     9    1
     3     1    10    1
     4     2     3    1
     5     2    11    1
     6     3     4   ar
     7     3     8   ar
     8     4     5   ar
     9     4    12    1
    10     5     6   ar
    11     5    13    1
    12     6     7   ar
    13     6    14    1
    14     7     8   ar
    15     7    15    1
    16     8    16    1
