@<TRIPOS>MOLECULE
styrene.pdb
 16 16 0 0 0
SMALL
GASTEIGER

@<TRIPOS>ATOM
      1 C           0.9931   -0.0816   -0.1090 C.2     1  UNL1       -0.0981
      2 C           0.2361   -1.1727    0.0640 C.2     1  UNL1       -0.0617
      3 C          -1.2309   -1.2015   -0.0249 C.ar    1  UNL1       -0.0256
      4 C          -1.9522   -0.3370   -0.8594 C.ar    1  UNL1       -0.0546
      5 C          -3.3455   -0.4170   -0.9378 C.ar    1  UNL1       -0.0612
      6 C          -4.0332   -1.3705   -0.1913 C.ar    1  UNL1       -0.0617
      7 C          -3.3287   -2.2471    0.6305 C.ar    1  UNL1       -0.0612
      8 C          -1.9354   -2.1660    0.7091 C.ar    1  UNL1       -0.0546
      9 H           0.5730    0.8953   -0.3242 H       1  UNL1        0.0535
     10 H           2.0732   -0.1439   -0.0204 H       1  UNL1        0.0535
     11 H           0.7203   -2.1169    0.3052 H       1  UNL1        0.0618
     12 H          -1.4392    0.4029   -1.4680 H       1  UNL1        0.0623
     13 H          -3.8905    0.2631   -1.5870 H       1  UNL1        0.0618
     14 H          -5.1162   -1.4335   -0.2540 H       1  UNL1        0.0618
     15 H          -3.8619   -2.9959    1.2103 H       1  UNL1        0.0618
     16 H          -1.4056   -2.8604    1.3571 H       1  UNL1        0.0623
@<TRIPOS>BOND
     1     1     2    2
     2     1     9    1
     3     1    10    1
     4     2     3    1
     5     2    11    1
     6     3     4   ar
     7     3     8   ar
     8     4     5   ar
     9     4    12    1
    10     5     6   ar
    11     5    13    1
    12     6     7   ar
    13     6    14    1
    14     7     8   ar
    15     7    15    1
    16     8    16    1
