@<TRIPOS>MOLECULE
output/pdb_files/Ethanol_RDkit_Test.pdb
 9 8 0 0 0
SMALL
GASTEIGER

@<TRIPOS>ATOM
      1 C           0.9136   -0.0080   -0.0574 C.3     1  UNL1       -0.0418
      2 C           0.4178   -1.3700   -0.4969 C.3     1  UNL1        0.0414
      3 O           0.8898   -2.3690    0.3951 O.3     1  UNL1       -0.3953
      4 H           0.5704    0.2173    0.9576 H       1  UNL1        0.0252
      5 H           0.5557    0.7738   -0.7331 H       1  UNL1        0.0252
      6 H           2.0081    0.0178   -0.0366 H       1  UNL1        0.0252
      7 H          -0.6757   -1.3985   -0.4940 H       1  UNL1        0.0554
      8 H           0.7666   -1.6075   -1.5065 H       1  UNL1        0.0554
      9 H           1.8618   -2.3404    0.3798 H       1  UNL1        0.2094
@<TRIPOS>BOND
     1     1     2    1
     2     1     4    1
     3     1     5    1
     4     1     6    1
     5     2     3    1
     6     2     7    1
     7     2     8    1
     8     3     9    1
