@<TRIPOS>MOLECULE
styrene.pdb
 16 16 0 0 0
SMALL
GASTEIGER

@<TRIPOS>ATOM
      1 C           1.1160   -0.1593   -0.0791 C.2     1  UNL1       -0.0981
      2 C           0.3625   -0.2248    1.0270 C.2     1  UNL1       -0.0617
      3 C          -1.1050   -0.3130    1.0355 C.ar    1  UNL1       -0.0256
      4 C          -1.8241   -0.9368    0.0077 C.ar    1  UNL1       -0.0546
      5 C          -3.2165   -1.0341    0.0663 C.ar    1  UNL1       -0.0612
      6 C          -3.9063   -0.5193    1.1609 C.ar    1  UNL1       -0.0617
      7 C          -3.2041    0.0916    2.1975 C.ar    1  UNL1       -0.0612
      8 C          -1.8110    0.1905    2.1373 C.ar    1  UNL1       -0.0546
      9 H           0.6904   -0.1512   -1.0767 H       1  UNL1        0.0535
     10 H           2.1971   -0.0983   -0.0053 H       1  UNL1        0.0535
     11 H           0.8488   -0.2029    1.9997 H       1  UNL1        0.0618
     12 H          -1.3092   -1.3660   -0.8482 H       1  UNL1        0.0623
     13 H          -3.7588   -1.5182   -0.7416 H       1  UNL1        0.0618
     14 H          -4.9889   -0.5992    1.2079 H       1  UNL1        0.0618
     15 H          -3.7397    0.4901    3.0552 H       1  UNL1        0.0618
     16 H          -1.2832    0.6717    2.9574 H       1  UNL1        0.0623
@<TRIPOS>BOND
     1     1     2    2
     2     1     9    1
     3     1    10    1
     4     2     3    1
     5     2    11    1
     6     3     4   ar
     7     3     8   ar
     8     4     5   ar
     9     4    12    1
    10     5     6   ar
    11     5    13    1
    12     6     7   ar
    13     6    14    1
    14     7     8   ar
    15     7    15    1
    16     8    16    1
