@<TRIPOS>MOLECULE
output/pdb_files/Ethanol_RDkit_Test.pdb
 9 8 0 0 0
SMALL
GASTEIGER

@<TRIPOS>ATOM
      1 C           0.9986    0.0746   -0.0615 C.3     1  UNL1       -0.0418
      2 C           0.5029   -1.2940    0.3573 C.3     1  UNL1        0.0414
      3 O           0.9748   -1.6030    1.6605 O.3     1  UNL1       -0.3953
      4 H           0.6555    0.8401    0.6421 H       1  UNL1        0.0252
      5 H           0.6407    0.3291   -1.0630 H       1  UNL1        0.0252
      6 H           2.0931    0.1076   -0.0592 H       1  UNL1        0.0252
      7 H          -0.5906   -1.3157    0.3760 H       1  UNL1        0.0554
      8 H           0.8516   -2.0663   -0.3349 H       1  UNL1        0.0554
      9 H           1.9469   -1.5882    1.6315 H       1  UNL1        0.2094
@<TRIPOS>BOND
     1     1     2    1
     2     1     4    1
     3     1     5    1
     4     1     6    1
     5     2     3    1
     6     2     7    1
     7     2     8    1
     8     3     9    1
