@<TRIPOS>MOLECULE
output/pdb_files/Ethanol_RDkit_Test.pdb
 9 8 0 0 0
SMALL
GASTEIGER

@<TRIPOS>ATOM
      1 C           1.0382    0.0463   -0.0838 C.3     1  UNL1       -0.0418
      2 C           0.5424    1.0370   -1.1167 C.3     1  UNL1        0.0414
      3 O           1.0144    0.6714   -2.4051 O.3     1  UNL1       -0.3953
      4 H           0.6950   -0.9651   -0.3248 H       1  UNL1        0.0252
      5 H           0.6803    0.3123    0.9147 H       1  UNL1        0.0252
      6 H           2.1327    0.0163   -0.0697 H       1  UNL1        0.0252
      7 H          -0.5511    1.0468   -1.1436 H       1  UNL1        0.0554
      8 H           0.8912    2.0487   -0.8889 H       1  UNL1        0.0554
      9 H           1.9864    0.6726   -2.3726 H       1  UNL1        0.2094
@<TRIPOS>BOND
     1     1     2    1
     2     1     4    1
     3     1     5    1
     4     1     6    1
     5     2     3    1
     6     2     7    1
     7     2     8    1
     8     3     9    1
