@<TRIPOS>MOLECULE
styrene.pdb
 16 16 0 0 0
SMALL
GASTEIGER

@<TRIPOS>ATOM
      1 C           1.1382    0.0411   -0.1245 C.2     1  UNL1       -0.0981
      2 C           0.3815   -0.7578   -0.8884 C.2     1  UNL1       -0.0617
      3 C          -1.0853   -0.7045   -0.9660 C.ar    1  UNL1       -0.0256
      4 C          -1.8065    0.4828   -0.7843 C.ar    1  UNL1       -0.0546
      5 C          -3.1998    0.4968   -0.8959 C.ar    1  UNL1       -0.0612
      6 C          -3.8877   -0.6747   -1.2016 C.ar    1  UNL1       -0.0617
      7 C          -3.1828   -1.8598   -1.4008 C.ar    1  UNL1       -0.0612
      8 C          -1.7896   -1.8733   -1.2882 C.ar    1  UNL1       -0.0546
      9 H           0.7169    0.8035    0.5222 H       1  UNL1        0.0535
     10 H           2.2184   -0.0661   -0.1203 H       1  UNL1        0.0535
     11 H           0.8663   -1.5209   -1.4941 H       1  UNL1        0.0618
     12 H          -1.2935    1.4155   -0.5650 H       1  UNL1        0.0623
     13 H          -3.7447    1.4255   -0.7484 H       1  UNL1        0.0618
     14 H          -4.9705   -0.6631   -1.2899 H       1  UNL1        0.0618
     15 H          -3.7160   -2.7747   -1.6450 H       1  UNL1        0.0618
     16 H          -1.2596   -2.8095   -1.4476 H       1  UNL1        0.0623
@<TRIPOS>BOND
     1     1     2    2
     2     1     9    1
     3     1    10    1
     4     2     3    1
     5     2    11    1
     6     3     4   ar
     7     3     8   ar
     8     4     5   ar
     9     4    12    1
    10     5     6   ar
    11     5    13    1
    12     6     7   ar
    13     6    14    1
    14     7     8   ar
    15     7    15    1
    16     8    16    1
