@<TRIPOS>MOLECULE
styrene.pdb
 16 16 0 0 0
SMALL
GASTEIGER

@<TRIPOS>ATOM
      1 C           1.0911    0.1137    0.1620 C.2     1  UNL1       -0.0981
      2 C           0.3334    0.6613   -0.7979 C.2     1  UNL1       -0.0617
      3 C          -1.1340    0.7463   -0.7650 C.ar    1  UNL1       -0.0256
      4 C          -1.8549    0.8559    0.4315 C.ar    1  UNL1       -0.0546
      5 C          -3.2482    0.9679    0.4184 C.ar    1  UNL1       -0.0612
      6 C          -3.9361    0.9836   -0.7925 C.ar    1  UNL1       -0.0617
      7 C          -3.2316    0.8906   -1.9902 C.ar    1  UNL1       -0.0612
      8 C          -1.8384    0.7774   -1.9764 C.ar    1  UNL1       -0.0546
      9 H           0.6707   -0.3321    1.0566 H       1  UNL1        0.0535
     10 H           2.1713    0.0874    0.0598 H       1  UNL1        0.0535
     11 H           0.8175    1.0675   -1.6834 H       1  UNL1        0.0618
     12 H          -1.3420    0.8668    1.3895 H       1  UNL1        0.0623
     13 H          -3.7931    1.0489    1.3553 H       1  UNL1        0.0618
     14 H          -5.0191    1.0733   -0.8020 H       1  UNL1        0.0618
     15 H          -3.7651    0.9078   -2.9370 H       1  UNL1        0.0618
     16 H          -1.3088    0.7062   -2.9237 H       1  UNL1        0.0623
@<TRIPOS>BOND
     1     1     2    2
     2     1     9    1
     3     1    10    1
     4     2     3    1
     5     2    11    1
     6     3     4   ar
     7     3     8   ar
     8     4     5   ar
     9     4    12    1
    10     5     6   ar
    11     5    13    1
    12     6     7   ar
    13     6    14    1
    14     7     8   ar
    15     7    15    1
    16     8    16    1
