@<TRIPOS>MOLECULE
styrene.pdb
 16 16 0 0 0
SMALL
GASTEIGER

@<TRIPOS>ATOM
      1 C           0.9733   -0.0351    0.1195 C.2     1  UNL1       -0.0981
      2 C           0.2179    1.0320    0.4125 C.2     1  UNL1       -0.0617
      3 C          -1.2494    1.0221    0.5054 C.ar    1  UNL1       -0.0256
      4 C          -1.9703   -0.1107    0.9070 C.ar    1  UNL1       -0.0546
      5 C          -3.3632   -0.0707    1.0123 C.ar    1  UNL1       -0.0612
      6 C          -4.0511    1.1065    0.7287 C.ar    1  UNL1       -0.0617
      7 C          -3.3470    2.2450    0.3435 C.ar    1  UNL1       -0.0612
      8 C          -1.9537    2.2039    0.2376 C.ar    1  UNL1       -0.0546
      9 H           0.5510   -1.0123   -0.0882 H       1  UNL1        0.0535
     10 H           2.0538    0.0560    0.0657 H       1  UNL1        0.0535
     11 H           0.7028    1.9901    0.5837 H       1  UNL1        0.0618
     12 H          -1.4570   -1.0362    1.1540 H       1  UNL1        0.0623
     13 H          -3.9077   -0.9587    1.3217 H       1  UNL1        0.0618
     14 H          -5.1341    1.1376    0.8130 H       1  UNL1        0.0618
     15 H          -3.8807    3.1666    0.1267 H       1  UNL1        0.0618
     16 H          -1.4242    3.1048   -0.0650 H       1  UNL1        0.0623
@<TRIPOS>BOND
     1     1     2    2
     2     1     9    1
     3     1    10    1
     4     2     3    1
     5     2    11    1
     6     3     4   ar
     7     3     8   ar
     8     4     5   ar
     9     4    12    1
    10     5     6   ar
    11     5    13    1
    12     6     7   ar
    13     6    14    1
    14     7     8   ar
    15     7    15    1
    16     8    16    1
