@<TRIPOS>MOLECULE
styrene.pdb
 16 16 0 0 0
SMALL
GASTEIGER

@<TRIPOS>ATOM
      1 C           0.9769    0.1089    0.2214 C.2     1  UNL1       -0.0981
      2 C           0.2341    1.1214   -0.2510 C.2     1  UNL1       -0.0617
      3 C          -1.2307    1.1684   -0.1777 C.ar    1  UNL1       -0.0256
      4 C          -1.9447    0.5499    0.8580 C.ar    1  UNL1       -0.0546
      5 C          -3.3351    0.6454    0.9210 C.ar    1  UNL1       -0.0612
      6 C          -4.0283    1.3710   -0.0451 C.ar    1  UNL1       -0.0617
      7 C          -3.3309    2.0004   -1.0740 C.ar    1  UNL1       -0.0612
      8 C          -1.9387    1.9038   -1.1377 C.ar    1  UNL1       -0.0546
      9 H           0.5366   -0.7673    0.6843 H       1  UNL1        0.0535
     10 H           2.0573    0.1332    0.1398 H       1  UNL1        0.0535
     11 H           0.7239    1.9649   -0.7299 H       1  UNL1        0.0618
     12 H          -1.4231   -0.0059    1.6322 H       1  UNL1        0.0623
     13 H          -3.8744    0.1593    1.7296 H       1  UNL1        0.0618
     14 H          -5.1105    1.4493    0.0076 H       1  UNL1        0.0618
     15 H          -3.8702    2.5692   -1.8270 H       1  UNL1        0.0618
     16 H          -1.4121    2.4026   -1.9480 H       1  UNL1        0.0623
@<TRIPOS>BOND
     1     1     2    2
     2     1     9    1
     3     1    10    1
     4     2     3    1
     5     2    11    1
     6     3     4   ar
     7     3     8   ar
     8     4     5   ar
     9     4    12    1
    10     5     6   ar
    11     5    13    1
    12     6     7   ar
    13     6    14    1
    14     7     8   ar
    15     7    15    1
    16     8    16    1
