@<TRIPOS>MOLECULE
temp/c=cc1ccccc1_5.pdb
 82 86 0 0 0
SMALL
GASTEIGER

@<TRIPOS>ATOM
      1 C          -0.1839    4.9498   -3.2651 C.3     1  UNL1       -0.0422
      2 C          -1.0814    3.9565   -3.9983 C.3     1  UNL1       -0.0271
      3 C          -1.1220    4.2172   -5.4991 C.ar    1  UNL1       -0.0473
      4 C          -0.7478    3.2105   -6.3991 C.ar    1  UNL1       -0.0586
      5 C          -0.8918    3.3928   -7.7784 C.ar    1  UNL1       -0.0615
      6 C          -1.4009    4.5887   -8.2807 C.ar    1  UNL1       -0.0617
      7 C          -1.7310    5.6182   -7.4044 C.ar    1  UNL1       -0.0615
      8 C          -1.5916    5.4350   -6.0240 C.ar    1  UNL1       -0.0586
      9 H          -0.5861    5.9378   -3.5215 H       1  UNL1        0.0274
     10 H           0.8255    4.9103   -3.6888 H       1  UNL1        0.0274
     11 H          -0.7439    2.9336   -3.8051 H       1  UNL1        0.0313
     12 H          -0.3567    2.2645   -6.0333 H       1  UNL1        0.0620
     13 H          -0.6248    2.5910   -8.4617 H       1  UNL1        0.0618
     14 H          -1.5434    4.7152   -9.3510 H       1  UNL1        0.0618
     15 H          -2.1152    6.5581   -7.7943 H       1  UNL1        0.0618
     16 H          -1.8740    6.2536   -5.3657 H       1  UNL1        0.0620
     17 C           0.4035    3.5130   -1.1021 C.3     1  UNL1       -0.0393
     18 C          -0.1233    4.8717   -1.7073 C.3     1  UNL1       -0.0150
     19 C           0.4529    6.1754   -1.1140 C.ar    1  UNL1       -0.0442
     20 C           0.9296    7.2244   -1.9308 C.ar    1  UNL1       -0.0583
     21 C           1.2145    8.4920   -1.4210 C.ar    1  UNL1       -0.0615
     22 C           1.0779    8.7336   -0.0633 C.ar    1  UNL1       -0.0617
     23 C           0.6818    7.6981    0.7806 C.ar    1  UNL1       -0.0615
     24 C           0.3658    6.4331    0.2624 C.ar    1  UNL1       -0.0583
     25 H           0.4097    3.5706   -0.0069 H       1  UNL1        0.0277
     26 H          -0.3606    2.7706   -1.3610 H       1  UNL1        0.0277
     27 H          -1.1793    4.9107   -1.3927 H       1  UNL1        0.0349
     28 H           1.0629    7.0997   -3.0016 H       1  UNL1        0.0620
     29 H           1.5219    9.2868   -2.0957 H       1  UNL1        0.0618
     30 H           1.2785    9.7248    0.3330 H       1  UNL1        0.0618
     31 H           0.5926    7.8845    1.8473 H       1  UNL1        0.0618
     32 H           0.0179    5.6665    0.9497 H       1  UNL1        0.0620
     33 C           1.9566    1.3996   -1.5647 C.3     1  UNL1       -0.0393
     34 C           1.7648    2.9648   -1.6011 C.3     1  UNL1       -0.0148
     35 C           2.9344    3.8235   -1.1515 C.ar    1  UNL1       -0.0442
     36 C           3.4678    4.7695   -2.0502 C.ar    1  UNL1       -0.0583
     37 C           4.4360    5.6907   -1.6497 C.ar    1  UNL1       -0.0615
     38 C           4.9161    5.6652   -0.3469 C.ar    1  UNL1       -0.0617
     39 C           4.4287    4.7184    0.5543 C.ar    1  UNL1       -0.0615
     40 C           3.4325    3.8123    0.1551 C.ar    1  UNL1       -0.0583
     41 H           1.0564    0.9461   -2.0004 H       1  UNL1        0.0277
     42 H           2.7378    1.2680   -2.3213 H       1  UNL1        0.0277
     43 H           1.7103    3.1176   -2.6885 H       1  UNL1        0.0349
     44 H           3.0874    4.8380   -3.0667 H       1  UNL1        0.0620
     45 H           4.7861    6.4463   -2.3481 H       1  UNL1        0.0618
     46 H           5.6555    6.3910   -0.0262 H       1  UNL1        0.0618
     47 H           4.7937    4.7065    1.5719 H       1  UNL1        0.0618
     48 H           3.0299    3.1235    0.8965 H       1  UNL1        0.0620
     49 C           2.7853   -0.9664   -0.8830 C.3     1  UNL1       -0.0396
     50 C           2.4145    0.4979   -0.3627 C.3     1  UNL1       -0.0148
     51 C           1.4520    0.2836    0.8168 C.ar    1  UNL1       -0.0442
     52 C           1.9288   -0.3287    2.0013 C.ar    1  UNL1       -0.0583
     53 C           1.0719   -0.6477    3.0594 C.ar    1  UNL1       -0.0615
     54 C          -0.2830   -0.3575    2.9689 C.ar    1  UNL1       -0.0617
     55 C          -0.7741    0.2547    1.8165 C.ar    1  UNL1       -0.0615
     56 C           0.0816    0.5532    0.7497 C.ar    1  UNL1       -0.0583
     57 H           3.2360   -1.5182   -0.0473 H       1  UNL1        0.0277
     58 H           1.8532   -1.5000   -1.1190 H       1  UNL1        0.0277
     59 H           3.3274    0.9370    0.0546 H       1  UNL1        0.0349
     60 H           2.9794   -0.6007    2.0927 H       1  UNL1        0.0620
     61 H           1.4552   -1.1666    3.9370 H       1  UNL1        0.0618
     62 H          -0.9542   -0.6113    3.7864 H       1  UNL1        0.0618
     63 H          -1.8346    0.4836    1.7436 H       1  UNL1        0.0618
     64 H          -0.3611    0.9698   -0.1481 H       1  UNL1        0.0620
     65 C           5.0939   -0.4331   -1.8194 C.3     1  UNL1       -0.0584
     66 C           3.7407   -1.0941   -2.1026 C.3     1  UNL1       -0.0181
     67 C           4.0124   -2.5172   -2.6058 C.ar    1  UNL1       -0.0445
     68 C           4.2505   -2.7170   -3.9802 C.ar    1  UNL1       -0.0583
     69 C           4.6420   -3.9653   -4.4772 C.ar    1  UNL1       -0.0615
     70 C           4.7990   -5.0400   -3.6098 C.ar    1  UNL1       -0.0617
     71 C           4.5450   -4.8684   -2.2506 C.ar    1  UNL1       -0.0615
     72 C           4.1546   -3.6189   -1.7513 C.ar    1  UNL1       -0.0583
     73 H           5.6569   -0.9922   -1.0630 H       1  UNL1        0.0236
     74 H           5.7077   -0.3976   -2.7266 H       1  UNL1        0.0236
     75 H           3.2611   -0.5786   -2.9422 H       1  UNL1        0.0346
     76 H           4.1625   -1.8868   -4.6778 H       1  UNL1        0.0620
     77 H           4.8439   -4.0895   -5.5384 H       1  UNL1        0.0618
     78 H           5.1281   -6.0041   -3.9882 H       1  UNL1        0.0618
     79 H           4.6721   -5.7076   -1.5707 H       1  UNL1        0.0618
     80 H           3.9962   -3.5213   -0.6812 H       1  UNL1        0.0620
     81 H           4.9811    0.5949   -1.4661 H       1  UNL1        0.0236
     82 H          -2.1093    4.0320   -3.6231 H       1  UNL1        0.0313
@<TRIPOS>BOND
     1     1     2    1
     2     1     9    1
     3     1    10    1
     4     1    18    1
     5     2     3    1
     6     2    11    1
     7     2    82    1
     8     3     4   ar
     9     3     8   ar
    10     4     5   ar
    11     4    12    1
    12     5     6   ar
    13     5    13    1
    14     6     7   ar
    15     6    14    1
    16     7     8   ar
    17     7    15    1
    18     8    16    1
    19    17    18    1
    20    17    25    1
    21    17    26    1
    22    18    19    1
    23    18    27    1
    24    19    20   ar
    25    19    24   ar
    26    20    21   ar
    27    20    28    1
    28    21    22   ar
    29    21    29    1
    30    22    23   ar
    31    22    30    1
    32    23    24   ar
    33    23    31    1
    34    24    32    1
    35    33    41    1
    36    33    42    1
    37    34    35    1
    38    34    43    1
    39    35    36   ar
    40    35    40   ar
    41    36    37   ar
    42    36    44    1
    43    37    38   ar
    44    37    45    1
    45    38    39   ar
    46    38    46    1
    47    39    40   ar
    48    39    47    1
    49    40    48    1
    50    49    57    1
    51    49    58    1
    52    49    66    1
    53    50    51    1
    54    50    59    1
    55    51    52   ar
    56    51    56   ar
    57    52    53   ar
    58    52    60    1
    59    53    54   ar
    60    53    61    1
    61    54    55   ar
    62    54    62    1
    63    55    56   ar
    64    55    63    1
    65    56    64    1
    66    65    66    1
    67    65    73    1
    68    65    74    1
    69    65    81    1
    70    66    67    1
    71    66    75    1
    72    67    68   ar
    73    67    72   ar
    74    68    69   ar
    75    68    76    1
    76    69    70   ar
    77    69    77    1
    78    70    71   ar
    79    70    78    1
    80    71    72   ar
    81    71    79    1
    82    72    80    1
    83    34    33    1
    84    34    17    1
    85    50    49    1
    86    50    33    1
