@<TRIPOS>MOLECULE
temp/c=cc1ccccc1_5.pdb
 82 86 0 0 0
SMALL
GASTEIGER

@<TRIPOS>ATOM
      1 C          -0.6903   -4.6607   -4.8677 C.3     1  UNL1       -0.0422
      2 C          -0.2827   -6.1128   -4.5882 C.3     1  UNL1       -0.0271
      3 C           0.2464   -6.8190   -5.8240 C.ar    1  UNL1       -0.0473
      4 C           1.3985   -6.3522   -6.4715 C.ar    1  UNL1       -0.0586
      5 C           1.9266   -7.0279   -7.5740 C.ar    1  UNL1       -0.0615
      6 C           1.3087   -8.1816   -8.0501 C.ar    1  UNL1       -0.0617
      7 C           0.1494   -8.6483   -7.4353 C.ar    1  UNL1       -0.0615
      8 C          -0.3794   -7.9738   -6.3310 C.ar    1  UNL1       -0.0586
      9 H          -1.4028   -4.7149   -5.7029 H       1  UNL1        0.0274
     10 H           0.1634   -4.0788   -5.2307 H       1  UNL1        0.0274
     11 H           0.4833   -6.1497   -3.8115 H       1  UNL1        0.0313
     12 H           1.9016   -5.4585   -6.1114 H       1  UNL1        0.0620
     13 H           2.8275   -6.6564   -8.0550 H       1  UNL1        0.0618
     14 H           1.7301   -8.7151   -8.8990 H       1  UNL1        0.0618
     15 H          -0.3389   -9.5451   -7.8111 H       1  UNL1        0.0618
     16 H          -1.2846   -8.3574   -5.8653 H       1  UNL1        0.0620
     17 C          -0.4548   -3.5513   -2.4739 C.3     1  UNL1       -0.0393
     18 C          -1.3697   -3.9251   -3.6794 C.3     1  UNL1       -0.0150
     19 C          -2.2930   -2.7932   -4.1277 C.ar    1  UNL1       -0.0442
     20 C          -3.3081   -2.3565   -3.2611 C.ar    1  UNL1       -0.0583
     21 C          -4.2616   -1.4275   -3.6827 C.ar    1  UNL1       -0.0615
     22 C          -4.2217   -0.9244   -4.9797 C.ar    1  UNL1       -0.0617
     23 C          -3.2053   -1.3193   -5.8423 C.ar    1  UNL1       -0.0615
     24 C          -2.2412   -2.2332   -5.4145 C.ar    1  UNL1       -0.0583
     25 H          -1.0538   -3.0516   -1.7009 H       1  UNL1        0.0277
     26 H          -0.1631   -4.5112   -2.0356 H       1  UNL1        0.0277
     27 H          -2.0701   -4.6699   -3.2673 H       1  UNL1        0.0349
     28 H          -3.3823   -2.7620   -2.2548 H       1  UNL1        0.0620
     29 H          -5.0493   -1.1136   -3.0037 H       1  UNL1        0.0618
     30 H          -4.9819   -0.2274   -5.3188 H       1  UNL1        0.0618
     31 H          -3.1660   -0.9295   -6.8557 H       1  UNL1        0.0618
     32 H          -1.4634   -2.5130   -6.1198 H       1  UNL1        0.0620
     33 C           1.6921   -2.5671   -1.3826 C.3     1  UNL1       -0.0393
     34 C           0.8347   -2.7230   -2.6987 C.3     1  UNL1       -0.0148
     35 C           0.5807   -1.3284   -3.2648 C.ar    1  UNL1       -0.0442
     36 C           0.9904   -1.0240   -4.5710 C.ar    1  UNL1       -0.0583
     37 C           0.7911    0.2514   -5.1050 C.ar    1  UNL1       -0.0615
     38 C           0.1991    1.2494   -4.3335 C.ar    1  UNL1       -0.0617
     39 C          -0.2067    0.9673   -3.0330 C.ar    1  UNL1       -0.0615
     40 C          -0.0279   -0.3135   -2.5061 C.ar    1  UNL1       -0.0583
     41 H           2.6290   -2.0448   -1.6251 H       1  UNL1        0.0277
     42 H           1.1533   -1.8956   -0.7101 H       1  UNL1        0.0277
     43 H           1.4497   -3.2659   -3.4231 H       1  UNL1        0.0349
     44 H           1.4619   -1.7831   -5.1899 H       1  UNL1        0.0620
     45 H           1.0988    0.4659   -6.1247 H       1  UNL1        0.0618
     46 H           0.0506    2.2420   -4.7479 H       1  UNL1        0.0618
     47 H          -0.6659    1.7440   -2.4270 H       1  UNL1        0.0618
     48 H          -0.3651   -0.5035   -1.4904 H       1  UNL1        0.0620
     49 C           2.7427   -3.6051    0.7654 C.3     1  UNL1       -0.0396
     50 C           2.0084   -3.8633   -0.5867 C.3     1  UNL1       -0.0148
     51 C           2.6816   -4.9333   -1.4425 C.ar    1  UNL1       -0.0442
     52 C           2.2909   -6.2704   -1.2630 C.ar    1  UNL1       -0.0583
     53 C           2.6489   -7.2504   -2.1891 C.ar    1  UNL1       -0.0615
     54 C           3.4140   -6.9107   -3.3009 C.ar    1  UNL1       -0.0617
     55 C           3.8831   -5.6075   -3.4460 C.ar    1  UNL1       -0.0615
     56 C           3.5458   -4.6289   -2.5052 C.ar    1  UNL1       -0.0583
     57 H           2.9060   -4.5717    1.2631 H       1  UNL1        0.0277
     58 H           3.7433   -3.1981    0.5696 H       1  UNL1        0.0277
     59 H           1.0384   -4.2859   -0.3058 H       1  UNL1        0.0349
     60 H           1.6455   -6.5449   -0.4315 H       1  UNL1        0.0620
     61 H           2.2861   -8.2676   -2.0696 H       1  UNL1        0.0618
     62 H           3.6283   -7.6569   -4.0615 H       1  UNL1        0.0618
     63 H           4.4784   -5.3422   -4.3165 H       1  UNL1        0.0618
     64 H           3.9036   -3.6157   -2.6671 H       1  UNL1        0.0620
     65 C           0.5886   -3.1715    2.1237 C.3     1  UNL1       -0.0584
     66 C           1.9861   -2.6594    1.7491 C.3     1  UNL1       -0.0181
     67 C           2.7892   -2.3284    3.0028 C.ar    1  UNL1       -0.0445
     68 C           3.0548   -0.9811    3.3040 C.ar    1  UNL1       -0.0583
     69 C           3.8277   -0.6276    4.4172 C.ar    1  UNL1       -0.0615
     70 C           4.3273   -1.6192    5.2517 C.ar    1  UNL1       -0.0617
     71 C           4.0395   -2.9560    4.9962 C.ar    1  UNL1       -0.0615
     72 C           3.2675   -3.3113    3.8795 C.ar    1  UNL1       -0.0583
     73 H           0.6284   -4.1564    2.6003 H       1  UNL1        0.0236
     74 H           0.0900   -2.4836    2.8162 H       1  UNL1        0.0236
     75 H           1.8394   -1.7067    1.2288 H       1  UNL1        0.0346
     76 H           2.6663   -0.1886    2.6716 H       1  UNL1        0.0620
     77 H           4.0304    0.4178    4.6227 H       1  UNL1        0.0618
     78 H           4.9436   -1.3450    6.1098 H       1  UNL1        0.0618
     79 H           4.4178   -3.7271    5.6603 H       1  UNL1        0.0618
     80 H           3.0515   -4.3625    3.7082 H       1  UNL1        0.0620
     81 H          -0.0564   -3.2481    1.2426 H       1  UNL1        0.0236
     82 H          -1.1489   -6.6644   -4.2011 H       1  UNL1        0.0313
@<TRIPOS>BOND
     1     1     2    1
     2     1     9    1
     3     1    10    1
     4     1    18    1
     5     2     3    1
     6     2    11    1
     7     2    82    1
     8     3     4   ar
     9     3     8   ar
    10     4     5   ar
    11     4    12    1
    12     5     6   ar
    13     5    13    1
    14     6     7   ar
    15     6    14    1
    16     7     8   ar
    17     7    15    1
    18     8    16    1
    19    17    18    1
    20    17    25    1
    21    17    26    1
    22    18    19    1
    23    18    27    1
    24    19    20   ar
    25    19    24   ar
    26    20    21   ar
    27    20    28    1
    28    21    22   ar
    29    21    29    1
    30    22    23   ar
    31    22    30    1
    32    23    24   ar
    33    23    31    1
    34    24    32    1
    35    33    41    1
    36    33    42    1
    37    34    35    1
    38    34    43    1
    39    35    36   ar
    40    35    40   ar
    41    36    37   ar
    42    36    44    1
    43    37    38   ar
    44    37    45    1
    45    38    39   ar
    46    38    46    1
    47    39    40   ar
    48    39    47    1
    49    40    48    1
    50    49    57    1
    51    49    58    1
    52    49    66    1
    53    50    51    1
    54    50    59    1
    55    51    52   ar
    56    51    56   ar
    57    52    53   ar
    58    52    60    1
    59    53    54   ar
    60    53    61    1
    61    54    55   ar
    62    54    62    1
    63    55    56   ar
    64    55    63    1
    65    56    64    1
    66    65    66    1
    67    65    73    1
    68    65    74    1
    69    65    81    1
    70    66    67    1
    71    66    75    1
    72    67    68   ar
    73    67    72   ar
    74    68    69   ar
    75    68    76    1
    76    69    70   ar
    77    69    77    1
    78    70    71   ar
    79    70    78    1
    80    71    72   ar
    81    71    79    1
    82    72    80    1
    83    34    33    1
    84    34    17    1
    85    50    49    1
    86    50    33    1
