@<TRIPOS>MOLECULE
input/solvents/pdb/hexane.pdb
   20    19     1     0     0
SMALL
bcc


@<TRIPOS>ATOM
      1 H            0.9560     0.0860    -0.0740 hc         1 UNL       0.032700
      2 C            2.0510     0.0870    -0.0640 c3         1 UNL      -0.092100
      3 H1           2.3970    -0.8430    -0.5260 hc         1 UNL       0.032700
      4 H2           2.3970     0.9250    -0.6780 hc         1 UNL       0.032700
      5 C1           2.5670     0.2080     1.3580 c3         1 UNL      -0.080400
      6 H3           2.1840     1.1330     1.8070 hc         1 UNL       0.038700
      7 H4           2.1840    -0.6260     1.9570 hc         1 UNL       0.038700
      8 C2           4.0950     0.2110     1.3860 c3         1 UNL      -0.079400
      9 H5           4.4720    -0.7130     0.9320 hc         1 UNL       0.038700
     10 H6           4.4720     1.0460     0.7830 hc         1 UNL       0.038700
     11 C3           4.6190     0.3310     2.8140 c3         1 UNL      -0.079400
     12 H7           4.2400     1.2540     3.2690 hc         1 UNL       0.038700
     13 H8           4.2430    -0.5040     3.4170 hc         1 UNL       0.038700
     14 C4           6.1460     0.3360     2.8420 c3         1 UNL      -0.080400
     15 H9           6.5310    -0.5870     2.3920 hc         1 UNL       0.038700
     16 H10          6.5290     1.1720     2.2450 hc         1 UNL       0.038700
     17 C5           6.6630     0.4550     4.2650 c3         1 UNL      -0.092100
     18 H11          6.3150     1.3840     4.7290 hc         1 UNL       0.032700
     19 H12          6.3180    -0.3840     4.8770 hc         1 UNL       0.032700
     20 H13          7.7580     0.4580     4.2750 hc         1 UNL       0.032700
@<TRIPOS>BOND
     1     1     2 1   
     2     2     3 1   
     3     2     4 1   
     4     2     5 1   
     5     5     6 1   
     6     5     7 1   
     7     5     8 1   
     8     8     9 1   
     9     8    10 1   
    10     8    11 1   
    11    11    12 1   
    12    11    13 1   
    13    11    14 1   
    14    14    15 1   
    15    14    16 1   
    16    14    17 1   
    17    17    18 1   
    18    17    19 1   
    19    17    20 1   
@<TRIPOS>SUBSTRUCTURE
     1 UNL         1 TEMP              0 ****  ****    0 ROOT
