@<TRIPOS>MOLECULE
input/solvents/pdb/hexane.pdb
 20 19 0 0 0
SMALL
GASTEIGER

@<TRIPOS>ATOM
      1 H           0.9562    0.0859   -0.0741 H       1  UNL1        0.0230
      2 C           2.0507    0.0868   -0.0641 C.3     1  UNL1       -0.0653
      3 H           2.3971   -0.8433   -0.5265 H       1  UNL1        0.0230
      4 H           2.3971    0.9246   -0.6779 H       1  UNL1        0.0230
      5 C           2.5673    0.2085    1.3582 C.3     1  UNL1       -0.0559
      6 H           2.1838    1.1328    1.8066 H       1  UNL1        0.0263
      7 H           2.1838   -0.6258    1.9572 H       1  UNL1        0.0263
      8 C           4.0948    0.2110    1.3862 C.3     1  UNL1       -0.0533
      9 H           4.4723   -0.7129    0.9316 H       1  UNL1        0.0265
     10 H           4.4722    1.0457    0.7835 H       1  UNL1        0.0265
     11 C           4.6189    0.3312    2.8145 C.3     1  UNL1       -0.0533
     12 H           4.2402    1.2543    3.2695 H       1  UNL1        0.0265
     13 H           4.2426   -0.5043    3.4168 H       1  UNL1        0.0265
     14 C           6.1464    0.3357    2.8423 C.3     1  UNL1       -0.0559
     15 H           6.5311   -0.5873    2.3921 H       1  UNL1        0.0263
     16 H           6.5287    1.1716    2.2449 H       1  UNL1        0.0263
     17 C           6.6630    0.4554    4.2648 C.3     1  UNL1       -0.0653
     18 H           6.3154    1.3841    4.7289 H       1  UNL1        0.0230
     19 H           6.3178   -0.3841    4.8770 H       1  UNL1        0.0230
     20 H           7.7575    0.4577    4.2746 H       1  UNL1        0.0230
@<TRIPOS>BOND
     1     1     2    1
     2     2     3    1
     3     2     4    1
     4     2     5    1
     5     5     6    1
     6     5     7    1
     7     5     8    1
     8     8     9    1
     9     8    10    1
    10     8    11    1
    11    11    12    1
    12    11    13    1
    13    11    14    1
    14    14    15    1
    15    14    16    1
    16    14    17    1
    17    17    18    1
    18    17    19    1
    19    17    20    1
