@<TRIPOS>MOLECULE
rdkit_test3/c=cc1ccccc1_c=c_10.pdb
 112 116 0 0 0
SMALL
GASTEIGER

@<TRIPOS>ATOM
      1 C          -7.2201   -3.8448    7.6744 C.3     1  UNL1       -0.0584
      2 C          -6.8245   -2.4555    7.1398 C.3     1  UNL1       -0.0187
      3 C          -7.8347   -1.8476    6.1799 C.ar    1  UNL1       -0.0445
      4 C          -7.9513   -0.4545    6.1145 C.ar    1  UNL1       -0.0583
      5 C          -8.8066    0.1568    5.1977 C.ar    1  UNL1       -0.0615
      6 C          -9.5613   -0.6203    4.3218 C.ar    1  UNL1       -0.0617
      7 C          -9.4634   -2.0058    4.3688 C.ar    1  UNL1       -0.0615
      8 C          -8.6095   -2.6158    5.2928 C.ar    1  UNL1       -0.0583
      9 H          -8.1700   -3.7893    8.2192 H       1  UNL1        0.0236
     10 H          -6.4610   -4.2246    8.3661 H       1  UNL1        0.0236
     11 H          -6.8080   -1.8090    8.0284 H       1  UNL1        0.0346
     12 H          -7.3591    0.1700    6.7799 H       1  UNL1        0.0620
     13 H          -8.8756    1.2402    5.1602 H       1  UNL1        0.0618
     14 H         -10.2128   -0.1441    3.5950 H       1  UNL1        0.0618
     15 H         -10.0396   -2.6159    3.6733 H       1  UNL1        0.0618
     16 H          -8.5530   -3.7002    5.2833 H       1  UNL1        0.0620
     17 H          -7.3494   -4.5971    6.8905 H       1  UNL1        0.0236
     18 C          -5.3855   -2.4160    6.5431 C.3     1  UNL1       -0.0464
     19 C          -5.2643   -3.2468    5.2702 C.3     1  UNL1       -0.0520
     20 H          -5.0969   -1.3821    6.3206 H       1  UNL1        0.0271
     21 H          -4.6833   -2.7887    7.2986 H       1  UNL1        0.0271
     22 H          -5.7790   -4.1622    5.4970 H       1  UNL1        0.0266
     23 H          -5.8113   -2.7676    4.4522 H       1  UNL1        0.0266
     24 C          -3.8445   -3.5674    4.7969 C.3     1  UNL1       -0.0462
     25 C          -3.8064   -4.5240    3.5654 C.3     1  UNL1       -0.0158
     26 C          -2.4714   -4.4653    2.8190 C.ar    1  UNL1       -0.0443
     27 C          -2.4684   -4.5520    1.4152 C.ar    1  UNL1       -0.0583
     28 C          -1.2818   -4.4232    0.6901 C.ar    1  UNL1       -0.0615
     29 C          -0.0767   -4.2242    1.3573 C.ar    1  UNL1       -0.0617
     30 C          -0.0550   -4.1882    2.7498 C.ar    1  UNL1       -0.0615
     31 C          -1.2417   -4.3210    3.4770 C.ar    1  UNL1       -0.0583
     32 H          -3.3687   -2.6166    4.5247 H       1  UNL1        0.0271
     33 H          -3.2618   -3.9936    5.6222 H       1  UNL1        0.0271
     34 H          -4.5552   -4.1520    2.8550 H       1  UNL1        0.0349
     35 H          -3.3993   -4.7067    0.8736 H       1  UNL1        0.0620
     36 H          -1.3013   -4.4659   -0.3958 H       1  UNL1        0.0618
     37 H           0.8439   -4.0982    0.7939 H       1  UNL1        0.0618
     38 H           0.8871   -4.0437    3.2722 H       1  UNL1        0.0618
     39 H          -1.1910   -4.2921    4.5622 H       1  UNL1        0.0620
     40 C          -4.1368   -5.9999    3.8788 C.3     1  UNL1       -0.0462
     41 C          -5.5266   -6.2917    4.4470 C.3     1  UNL1       -0.0520
     42 H          -4.0242   -6.6036    2.9681 H       1  UNL1        0.0271
     43 H          -3.3905   -6.3999    4.5804 H       1  UNL1        0.0271
     44 H          -5.6142   -7.3704    4.5193 H       1  UNL1        0.0266
     45 H          -5.5660   -5.9929    5.4983 H       1  UNL1        0.0266
     46 C          -6.7350   -5.7334    3.6594 C.3     1  UNL1       -0.0462
     47 C          -7.0444   -6.5250    2.3714 C.3     1  UNL1       -0.0158
     48 C          -8.1779   -5.9223    1.5343 C.ar    1  UNL1       -0.0443
     49 C          -7.8830   -4.8847    0.6376 C.ar    1  UNL1       -0.0583
     50 C          -8.8648   -4.3866   -0.2283 C.ar    1  UNL1       -0.0615
     51 C         -10.1594   -4.9003   -0.2011 C.ar    1  UNL1       -0.0617
     52 C         -10.4805   -5.9028    0.7008 C.ar    1  UNL1       -0.0615
     53 C          -9.4967   -6.4008    1.5560 C.ar    1  UNL1       -0.0583
     54 H          -7.6121   -5.7398    4.3193 H       1  UNL1        0.0271
     55 H          -6.5885   -4.6800    3.4091 H       1  UNL1        0.0271
     56 H          -6.1483   -6.4381    1.7387 H       1  UNL1        0.0349
     57 H          -6.8778   -4.4744    0.5840 H       1  UNL1        0.0620
     58 H          -8.6084   -3.6048   -0.9388 H       1  UNL1        0.0618
     59 H         -10.9154   -4.5348   -0.8900 H       1  UNL1        0.0618
     60 H         -11.4807   -6.3219    0.7320 H       1  UNL1        0.0618
     61 H          -9.8151   -7.2005    2.2074 H       1  UNL1        0.0620
     62 C          -7.1943   -8.0414    2.6401 C.3     1  UNL1       -0.0462
     63 C          -8.0970   -8.4129    3.8309 C.3     1  UNL1       -0.0520
     64 H          -7.5288   -8.5550    1.7320 H       1  UNL1        0.0271
     65 H          -6.1845   -8.4291    2.8200 H       1  UNL1        0.0271
     66 H          -7.8457   -7.8397    4.7234 H       1  UNL1        0.0266
     67 H          -9.1372   -8.1644    3.6382 H       1  UNL1        0.0266
     68 C          -8.0797   -9.9028    4.1452 C.3     1  UNL1       -0.0462
     69 C          -6.7279  -10.4396    4.6622 C.3     1  UNL1       -0.0158
     70 C          -6.2219   -9.6942    5.8981 C.ar    1  UNL1       -0.0443
     71 C          -4.8550   -9.3795    5.9889 C.ar    1  UNL1       -0.0583
     72 C          -4.3879   -8.4902    6.9615 C.ar    1  UNL1       -0.0615
     73 C          -5.2749   -7.9194    7.8709 C.ar    1  UNL1       -0.0617
     74 C          -6.6217   -8.2690    7.8346 C.ar    1  UNL1       -0.0615
     75 C          -7.0882   -9.1678    6.8712 C.ar    1  UNL1       -0.0583
     76 H          -8.8777  -10.1246    4.8636 H       1  UNL1        0.0271
     77 H          -8.3671  -10.4152    3.2280 H       1  UNL1        0.0271
     78 H          -5.9862  -10.2535    3.8769 H       1  UNL1        0.0349
     79 H          -4.1564   -9.7506    5.2416 H       1  UNL1        0.0620
     80 H          -3.3409   -8.1987    6.9691 H       1  UNL1        0.0618
     81 H          -4.9213   -7.1881    8.5926 H       1  UNL1        0.0618
     82 H          -7.3201   -7.8120    8.5314 H       1  UNL1        0.0618
     83 H          -8.1541   -9.3790    6.8430 H       1  UNL1        0.0620
     84 C          -6.7795  -11.9676    4.8628 C.3     1  UNL1       -0.0462
     85 C          -7.2557  -12.7676    3.6285 C.3     1  UNL1       -0.0520
     86 H          -5.7854  -12.3284    5.1543 H       1  UNL1        0.0271
     87 H          -7.4504  -12.1982    5.7005 H       1  UNL1        0.0271
     88 H          -7.2194  -13.8353    3.8728 H       1  UNL1        0.0266
     89 H          -8.3111  -12.5380    3.4515 H       1  UNL1        0.0266
     90 C          -6.4335  -12.5121    2.3517 C.3     1  UNL1       -0.0462
     91 C          -6.9242  -13.2969    1.1052 C.3     1  UNL1       -0.0161
     92 C          -6.0466  -13.1066   -0.1340 C.ar    1  UNL1       -0.0443
     93 C          -5.9350  -14.1618   -1.0574 C.ar    1  UNL1       -0.0583
     94 C          -5.1625  -14.0306   -2.2147 C.ar    1  UNL1       -0.0615
     95 C          -4.4885  -12.8412   -2.4719 C.ar    1  UNL1       -0.0617
     96 C          -4.5955  -11.7816   -1.5756 C.ar    1  UNL1       -0.0615
     97 C          -5.3721  -11.9100   -0.4203 C.ar    1  UNL1       -0.0583
     98 H          -6.4305  -11.4423    2.1276 H       1  UNL1        0.0271
     99 H          -5.3897  -12.7877    2.5539 H       1  UNL1        0.0271
    100 H          -6.8295  -14.3579    1.3800 H       1  UNL1        0.0349
    101 H          -6.4584  -15.0992   -0.8818 H       1  UNL1        0.0620
    102 H          -5.0899  -14.8569   -2.9169 H       1  UNL1        0.0618
    103 H          -3.8858  -12.7376   -3.3697 H       1  UNL1        0.0618
    104 H          -4.0777  -10.8464   -1.7772 H       1  UNL1        0.0618
    105 H          -5.4442  -11.0506    0.2404 H       1  UNL1        0.0620
    106 C          -8.4144  -13.0744    0.7511 C.3     1  UNL1       -0.0491
    107 C          -8.8088  -11.6369    0.4391 C.3     1  UNL1       -0.0647
    108 H          -8.6869  -13.6947   -0.1124 H       1  UNL1        0.0268
    109 H          -9.0386  -13.4366    1.5763 H       1  UNL1        0.0268
    110 H          -8.3448  -11.2830   -0.4853 H       1  UNL1        0.0230
    111 H          -9.8948  -11.5675    0.3160 H       1  UNL1        0.0230
    112 H          -8.5288  -10.9532    1.2389 H       1  UNL1        0.0230
@<TRIPOS>BOND
     1     1     2    1
     2     1     9    1
     3     1    10    1
     4     1    17    1
     5     2     3    1
     6     2    11    1
     7     2    18    1
     8     3     4   ar
     9     3     8   ar
    10     4     5   ar
    11     4    12    1
    12     5     6   ar
    13     5    13    1
    14     6     7   ar
    15     6    14    1
    16     7     8   ar
    17     7    15    1
    18     8    16    1
    19    18    19    1
    20    18    20    1
    21    18    21    1
    22    19    22    1
    23    19    23    1
    24    19    24    1
    25    24    32    1
    26    24    33    1
    27    25    34    1
    28    25    40    1
    29    26    27   ar
    30    26    31   ar
    31    27    28   ar
    32    27    35    1
    33    28    29   ar
    34    28    36    1
    35    29    30   ar
    36    29    37    1
    37    30    31   ar
    38    30    38    1
    39    31    39    1
    40    40    41    1
    41    40    42    1
    42    40    43    1
    43    41    44    1
    44    41    45    1
    45    41    46    1
    46    46    47    1
    47    46    54    1
    48    46    55    1
    49    47    48    1
    50    47    56    1
    51    47    62    1
    52    48    49   ar
    53    48    53   ar
    54    49    50   ar
    55    49    57    1
    56    50    51   ar
    57    50    58    1
    58    51    52   ar
    59    51    59    1
    60    52    53   ar
    61    52    60    1
    62    53    61    1
    63    62    63    1
    64    62    64    1
    65    62    65    1
    66    63    66    1
    67    63    67    1
    68    63    68    1
    69    68    76    1
    70    68    77    1
    71    69    78    1
    72    69    84    1
    73    70    71   ar
    74    70    75   ar
    75    71    72   ar
    76    71    79    1
    77    72    73   ar
    78    72    80    1
    79    73    74   ar
    80    73    81    1
    81    74    75   ar
    82    74    82    1
    83    75    83    1
    84    84    85    1
    85    84    86    1
    86    84    87    1
    87    85    88    1
    88    85    89    1
    89    85    90    1
    90    90    91    1
    91    90    98    1
    92    90    99    1
    93    91    92    1
    94    91   100    1
    95    91   106    1
    96    92    93   ar
    97    92    97   ar
    98    93    94   ar
    99    93   101    1
   100    94    95   ar
   101    94   102    1
   102    95    96   ar
   103    95   103    1
   104    96    97   ar
   105    96   104    1
   106    97   105    1
   107   106   107    1
   108   106   108    1
   109   106   109    1
   110   107   110    1
   111   107   111    1
   112   107   112    1
   113    25    26    1
   114    25    24    1
   115    69    70    1
   116    69    68    1
