@<TRIPOS>MOLECULE
temp/c=cc1ccccc1_c=c_4.pdb
 46 47 0 0 0
SMALL
GASTEIGER

@<TRIPOS>ATOM
      1 C          -2.3561    2.5530    3.3149 C.3     1  UNL1       -0.0584
      2 C          -2.9366    1.5174    2.3435 C.3     1  UNL1       -0.0187
      3 C          -4.4054    1.1877    2.5743 C.ar    1  UNL1       -0.0445
      4 C          -5.2203    0.8914    1.4682 C.ar    1  UNL1       -0.0583
      5 C          -6.5573    0.5261    1.6373 C.ar    1  UNL1       -0.0615
      6 C          -7.1012    0.4467    2.9157 C.ar    1  UNL1       -0.0617
      7 C          -6.3117    0.7443    4.0230 C.ar    1  UNL1       -0.0615
      8 C          -4.9752    1.1150    3.8541 C.ar    1  UNL1       -0.0583
      9 H          -2.9265    3.4881    3.2701 H       1  UNL1        0.0236
     10 H          -1.3177    2.7825    3.0522 H       1  UNL1        0.0236
     11 H          -2.8785    1.9928    1.3533 H       1  UNL1        0.0346
     12 H          -4.8120    0.9366    0.4603 H       1  UNL1        0.0620
     13 H          -7.1703    0.2953    0.7702 H       1  UNL1        0.0618
     14 H          -8.1380    0.1500    3.0499 H       1  UNL1        0.0618
     15 H          -6.7325    0.6799    5.0232 H       1  UNL1        0.0618
     16 H          -4.3824    1.3218    4.7414 H       1  UNL1        0.0620
     17 H          -2.3641    2.2160    4.3549 H       1  UNL1        0.0236
     18 C          -2.0688    0.2377    2.2638 C.3     1  UNL1       -0.0464
     19 C          -1.8955   -0.5031    3.5951 C.3     1  UNL1       -0.0520
     20 H          -2.5010   -0.4502    1.5253 H       1  UNL1        0.0271
     21 H          -1.0854    0.5243    1.8753 H       1  UNL1        0.0271
     22 H          -1.4510    0.1559    4.3469 H       1  UNL1        0.0266
     23 H          -2.8807   -0.7887    3.9801 H       1  UNL1        0.0266
     24 C          -1.0682   -1.7918    3.4856 C.3     1  UNL1       -0.0462
     25 C           0.4084   -1.6274    3.0537 C.3     1  UNL1       -0.0161
     26 C           1.1464   -0.5999    3.9065 C.ar    1  UNL1       -0.0443
     27 C           1.6245    0.5819    3.3198 C.ar    1  UNL1       -0.0583
     28 C           2.2572    1.5601    4.0954 C.ar    1  UNL1       -0.0615
     29 C           2.4189    1.3678    5.4642 C.ar    1  UNL1       -0.0617
     30 C           1.9624    0.1933    6.0587 C.ar    1  UNL1       -0.0615
     31 C           1.3293   -0.7828    5.2861 C.ar    1  UNL1       -0.0583
     32 H          -1.1075   -2.2988    4.4594 H       1  UNL1        0.0271
     33 H          -1.5816   -2.4521    2.7765 H       1  UNL1        0.0271
     34 H           0.4142   -1.2806    2.0122 H       1  UNL1        0.0349
     35 H           1.5038    0.7572    2.2536 H       1  UNL1        0.0620
     36 H           2.6108    2.4755    3.6286 H       1  UNL1        0.0618
     37 H           2.9032    2.1310    6.0676 H       1  UNL1        0.0618
     38 H           2.0917    0.0403    7.1261 H       1  UNL1        0.0618
     39 H           0.9692   -1.6837    5.7755 H       1  UNL1        0.0620
     40 C           1.1637   -2.9800    3.0766 C.3     1  UNL1       -0.0491
     41 C           0.5384   -4.0565    2.1981 C.3     1  UNL1       -0.0647
     42 H           2.1968   -2.8207    2.7432 H       1  UNL1        0.0268
     43 H           1.2266   -3.3697    4.1001 H       1  UNL1        0.0268
     44 H           0.4412   -3.7149    1.1631 H       1  UNL1        0.0230
     45 H           1.1640   -4.9546    2.2034 H       1  UNL1        0.0230
     46 H          -0.4495   -4.3512    2.5625 H       1  UNL1        0.0230
@<TRIPOS>BOND
     1     1     2    1
     2     1     9    1
     3     1    10    1
     4     1    17    1
     5     2     3    1
     6     2    11    1
     7     2    18    1
     8     3     4   ar
     9     3     8   ar
    10     4     5   ar
    11     4    12    1
    12     5     6   ar
    13     5    13    1
    14     6     7   ar
    15     6    14    1
    16     7     8   ar
    17     7    15    1
    18     8    16    1
    19    18    19    1
    20    18    20    1
    21    18    21    1
    22    19    22    1
    23    19    23    1
    24    19    24    1
    25    24    32    1
    26    24    33    1
    27    25    34    1
    28    25    40    1
    29    26    27   ar
    30    26    31   ar
    31    27    28   ar
    32    27    35    1
    33    28    29   ar
    34    28    36    1
    35    29    30   ar
    36    29    37    1
    37    30    31   ar
    38    30    38    1
    39    31    39    1
    40    40    41    1
    41    40    42    1
    42    40    43    1
    43    41    44    1
    44    41    45    1
    45    41    46    1
    46    25    26    1
    47    25    24    1
