@<TRIPOS>MOLECULE
temp/c=cc1ccccc1_c=c_4.pdb
 46 47 0 0 0
SMALL
GASTEIGER

@<TRIPOS>ATOM
      1 C          -3.0257    1.9530    4.1614 C.3     1  UNL1       -0.0584
      2 C          -3.5915    1.0114    3.0894 C.3     1  UNL1       -0.0187
      3 C          -4.9273    0.3763    3.4470 C.ar    1  UNL1       -0.0445
      4 C          -5.8626    0.1360    2.4261 C.ar    1  UNL1       -0.0583
      5 C          -7.0759   -0.4992    2.6981 C.ar    1  UNL1       -0.0615
      6 C          -7.3725   -0.9082    3.9950 C.ar    1  UNL1       -0.0617
      7 C          -6.4603   -0.6730    5.0203 C.ar    1  UNL1       -0.0615
      8 C          -5.2478   -0.0336    4.7493 C.ar    1  UNL1       -0.0583
      9 H          -3.7358    2.7581    4.3786 H       1  UNL1        0.0236
     10 H          -2.0949    2.4134    3.8114 H       1  UNL1        0.0236
     11 H          -3.7769    1.6547    2.2160 H       1  UNL1        0.0346
     12 H          -5.6453    0.4363    1.4032 H       1  UNL1        0.0620
     13 H          -7.7846   -0.6816    1.8948 H       1  UNL1        0.0618
     14 H          -8.3108   -1.4137    4.2061 H       1  UNL1        0.0618
     15 H          -6.6863   -0.9967    6.0329 H       1  UNL1        0.0618
     16 H          -4.5502    0.1158    5.5692 H       1  UNL1        0.0620
     17 H          -2.8066    1.4447    5.1065 H       1  UNL1        0.0236
     18 C          -2.5609   -0.0490    2.6375 C.3     1  UNL1       -0.0464
     19 C          -2.0545   -0.9683    3.7557 C.3     1  UNL1       -0.0520
     20 H          -2.9948   -0.6658    1.8394 H       1  UNL1        0.0271
     21 H          -1.7145    0.4801    2.1864 H       1  UNL1        0.0271
     22 H          -1.6113   -0.3801    4.5662 H       1  UNL1        0.0266
     23 H          -2.9013   -1.5060    4.1951 H       1  UNL1        0.0266
     24 C          -1.0491   -2.0261    3.2805 C.3     1  UNL1       -0.0462
     25 C           0.2809   -1.4916    2.6976 C.3     1  UNL1       -0.0161
     26 C           0.9523   -0.4921    3.6341 C.ar    1  UNL1       -0.0443
     27 C           1.0863    0.8504    3.2448 C.ar    1  UNL1       -0.0583
     28 C           1.6225    1.7981    4.1189 C.ar    1  UNL1       -0.0615
     29 C           2.0422    1.4166    5.3906 C.ar    1  UNL1       -0.0617
     30 C           1.9349    0.0853    5.7850 C.ar    1  UNL1       -0.0615
     31 C           1.3937   -0.8632    4.9138 C.ar    1  UNL1       -0.0583
     32 H          -0.8374   -2.6896    4.1286 H       1  UNL1        0.0271
     33 H          -1.5529   -2.6429    2.5272 H       1  UNL1        0.0271
     34 H           0.0497   -0.9778    1.7546 H       1  UNL1        0.0349
     35 H           0.7555    1.1742    2.2604 H       1  UNL1        0.0620
     36 H           1.7031    2.8371    3.8102 H       1  UNL1        0.0618
     37 H           2.4489    2.1562    6.0753 H       1  UNL1        0.0618
     38 H           2.2623   -0.2150    6.7770 H       1  UNL1        0.0618
     39 H           1.3033   -1.8923    5.2515 H       1  UNL1        0.0620
     40 C           1.2540   -2.6431    2.3450 C.3     1  UNL1       -0.0491
     41 C           0.6844   -3.6458    1.3483 C.3     1  UNL1       -0.0647
     42 H           2.1732   -2.2197    1.9203 H       1  UNL1        0.0268
     43 H           1.5526   -3.1885    3.2484 H       1  UNL1        0.0268
     44 H           0.3401   -3.1468    0.4374 H       1  UNL1        0.0230
     45 H           1.4518   -4.3743    1.0688 H       1  UNL1        0.0230
     46 H          -0.1523   -4.2077    1.7757 H       1  UNL1        0.0230
@<TRIPOS>BOND
     1     1     2    1
     2     1     9    1
     3     1    10    1
     4     1    17    1
     5     2     3    1
     6     2    11    1
     7     2    18    1
     8     3     4   ar
     9     3     8   ar
    10     4     5   ar
    11     4    12    1
    12     5     6   ar
    13     5    13    1
    14     6     7   ar
    15     6    14    1
    16     7     8   ar
    17     7    15    1
    18     8    16    1
    19    18    19    1
    20    18    20    1
    21    18    21    1
    22    19    22    1
    23    19    23    1
    24    19    24    1
    25    24    32    1
    26    24    33    1
    27    25    34    1
    28    25    40    1
    29    26    27   ar
    30    26    31   ar
    31    27    28   ar
    32    27    35    1
    33    28    29   ar
    34    28    36    1
    35    29    30   ar
    36    29    37    1
    37    30    31   ar
    38    30    38    1
    39    31    39    1
    40    40    41    1
    41    40    42    1
    42    40    43    1
    43    41    44    1
    44    41    45    1
    45    41    46    1
    46    25    26    1
    47    25    24    1
