@<TRIPOS>MOLECULE
input/solvents/pdb/hexane.pdb
 20 19 0 0 0
SMALL
GASTEIGER

@<TRIPOS>ATOM
      1 H           1.0167   -0.0614   -0.0400 H       1  UNL1        0.0230
      2 C           2.1112   -0.0539   -0.0467 C.3     1  UNL1       -0.0653
      3 H           2.4576    0.1338    0.9749 H       1  UNL1        0.0230
      4 H           2.4576   -1.0475   -0.3492 H       1  UNL1        0.0230
      5 C           2.6278    1.0114   -0.9969 C.3     1  UNL1       -0.0559
      6 H           2.2443    0.8161   -2.0055 H       1  UNL1        0.0263
      7 H           2.2443    1.9910   -0.6883 H       1  UNL1        0.0263
      8 C           4.1553    1.0323   -1.0156 C.3     1  UNL1       -0.0533
      9 H           4.5328    1.2225   -0.0037 H       1  UNL1        0.0265
     10 H           4.5328    0.0495   -1.3223 H       1  UNL1        0.0265
     11 C           4.6794    2.1033   -1.9683 C.3     1  UNL1       -0.0533
     12 H           4.3031    1.9124   -2.9805 H       1  UNL1        0.0265
     13 H           4.3008    3.0860   -1.6625 H       1  UNL1        0.0265
     14 C           6.2069    2.1256   -1.9855 C.3     1  UNL1       -0.0559
     15 H           6.5892    2.3203   -0.9764 H       1  UNL1        0.0263
     16 H           6.5915    1.1466   -2.2946 H       1  UNL1        0.0263
     17 C           6.7235    3.1922   -2.9343 C.3     1  UNL1       -0.0653
     18 H           6.3783    3.0052   -3.9563 H       1  UNL1        0.0230
     19 H           6.3759    4.1852   -2.6312 H       1  UNL1        0.0230
     20 H           7.8180    3.2006   -2.9398 H       1  UNL1        0.0230
@<TRIPOS>BOND
     1     1     2    1
     2     2     3    1
     3     2     4    1
     4     2     5    1
     5     5     6    1
     6     5     7    1
     7     5     8    1
     8     8     9    1
     9     8    10    1
    10     8    11    1
    11    11    12    1
    12    11    13    1
    13    11    14    1
    14    14    15    1
    15    14    16    1
    16    14    17    1
    17    17    18    1
    18    17    19    1
    19    17    20    1
