@<TRIPOS>MOLECULE
input/solvents/pdb/hexane.pdb
 20 19 0 0 0
SMALL
GASTEIGER

@<TRIPOS>ATOM
      1 H           0.9749    0.0117   -0.0701 H       1  UNL1        0.0230
      2 C           2.0694    0.0202   -0.0753 C.3     1  UNL1       -0.0653
      3 H           2.4158    0.0142    0.9634 H       1  UNL1        0.0230
      4 H           2.4158   -0.8996   -0.5576 H       1  UNL1        0.0230
      5 C           2.5860    1.2439   -0.8104 C.3     1  UNL1       -0.0559
      6 H           2.2025    1.2399   -1.8376 H       1  UNL1        0.0263
      7 H           2.2025    2.1489   -0.3246 H       1  UNL1        0.0263
      8 C           4.1135    1.2679   -0.8249 C.3     1  UNL1       -0.0533
      9 H           4.4910    1.2662    0.2048 H       1  UNL1        0.0265
     10 H           4.4910    0.3595   -1.3093 H       1  UNL1        0.0265
     11 C           4.6376    2.4977   -1.5613 C.3     1  UNL1       -0.0533
     12 H           4.2590    2.5002   -2.5904 H       1  UNL1        0.0265
     13 H           4.2613    3.4062   -1.0759 H       1  UNL1        0.0265
     14 C           6.1651    2.5207   -1.5775 C.3     1  UNL1       -0.0559
     15 H           6.5498    2.5225   -0.5506 H       1  UNL1        0.0263
     16 H           6.5474    1.6164   -2.0654 H       1  UNL1        0.0263
     17 C           6.6817    3.7455   -2.3108 C.3     1  UNL1       -0.0653
     18 H           6.3341    3.7537   -3.3491 H       1  UNL1        0.0230
     19 H           6.3365    4.6646   -1.8263 H       1  UNL1        0.0230
     20 H           7.7762    3.7533   -2.3172 H       1  UNL1        0.0230
@<TRIPOS>BOND
     1     1     2    1
     2     2     3    1
     3     2     4    1
     4     2     5    1
     5     5     6    1
     6     5     7    1
     7     5     8    1
     8     8     9    1
     9     8    10    1
    10     8    11    1
    11    11    12    1
    12    11    13    1
    13    11    14    1
    14    14    15    1
    15    14    16    1
    16    14    17    1
    17    17    18    1
    18    17    19    1
    19    17    20    1
