@<TRIPOS>MOLECULE
input/solvents/pdb/hexane.pdb
 20 19 0 0 0
SMALL
GASTEIGER

@<TRIPOS>ATOM
      1 H           0.8845   -0.0759   -0.0751 H       1  UNL1        0.0230
      2 C           1.9791   -0.0717   -0.0660 C.3     1  UNL1       -0.0653
      3 H           2.3254   -1.1029   -0.1907 H       1  UNL1        0.0230
      4 H           2.3255    0.5126   -0.9246 H       1  UNL1        0.0230
      5 C           2.4956    0.5186    1.2338 C.3     1  UNL1       -0.0559
      6 H           2.1122    1.5396    1.3473 H       1  UNL1        0.0263
      7 H           2.1121   -0.0675    2.0772 H       1  UNL1        0.0263
      8 C           4.0231    0.5302    1.2593 C.3     1  UNL1       -0.0533
      9 H           4.4006   -0.4924    1.1398 H       1  UNL1        0.0265
     10 H           4.4006    1.1154    0.4122 H       1  UNL1        0.0265
     11 C           4.5473    1.1212    2.5652 C.3     1  UNL1       -0.0533
     12 H           4.1709    2.1443    2.6840 H       1  UNL1        0.0265
     13 H           4.1686    0.5369    3.4124 H       1  UNL1        0.0265
     14 C           6.0748    1.1310    2.5915 C.3     1  UNL1       -0.0559
     15 H           6.4571    0.1096    2.4773 H       1  UNL1        0.0263
     16 H           6.4594    1.7173    1.7488 H       1  UNL1        0.0263
     17 C           6.5913    1.7195    3.8921 C.3     1  UNL1       -0.0653
     18 H           6.2461    2.7510    4.0176 H       1  UNL1        0.0230
     19 H           6.2438    1.1347    4.7500 H       1  UNL1        0.0230
     20 H           7.6859    1.7223    3.9018 H       1  UNL1        0.0230
@<TRIPOS>BOND
     1     1     2    1
     2     2     3    1
     3     2     4    1
     4     2     5    1
     5     5     6    1
     6     5     7    1
     7     5     8    1
     8     8     9    1
     9     8    10    1
    10     8    11    1
    11    11    12    1
    12    11    13    1
    13    11    14    1
    14    14    15    1
    15    14    16    1
    16    14    17    1
    17    17    18    1
    18    17    19    1
    19    17    20    1
