@<TRIPOS>MOLECULE
input/solvents/pdb/hexane.pdb
 20 19 0 0 0
SMALL
GASTEIGER

@<TRIPOS>ATOM
      1 H           0.8764   -0.0559   -0.0421 H       1  UNL1        0.0230
      2 C           1.9709   -0.0475   -0.0475 C.3     1  UNL1       -0.0653
      3 H           2.3173   -0.0093    0.9904 H       1  UNL1        0.0230
      4 H           2.3173   -0.9870   -0.4903 H       1  UNL1        0.0230
      5 C           2.4875    1.1438   -0.8341 C.3     1  UNL1       -0.0559
      6 H           2.1041    1.0961   -1.8603 H       1  UNL1        0.0263
      7 H           2.1040    2.0686   -0.3873 H       1  UNL1        0.0263
      8 C           4.0150    1.1672   -0.8496 C.3     1  UNL1       -0.0533
      9 H           4.3925    1.2093    0.1792 H       1  UNL1        0.0265
     10 H           4.3925    0.2389   -1.2949 H       1  UNL1        0.0265
     11 C           4.5392    2.3645   -1.6376 C.3     1  UNL1       -0.0533
     12 H           4.1628    2.3216   -2.6668 H       1  UNL1        0.0265
     13 H           4.1605    3.2927   -1.1931 H       1  UNL1        0.0265
     14 C           6.0667    2.3890   -1.6514 C.3     1  UNL1       -0.0559
     15 H           6.4490    2.4361   -0.6248 H       1  UNL1        0.0263
     16 H           6.4513    1.4649   -2.0987 H       1  UNL1        0.0263
     17 C           6.5832    3.5814   -2.4363 C.3     1  UNL1       -0.0653
     18 H           6.2380    3.5439   -3.4747 H       1  UNL1        0.0230
     19 H           6.2357    4.5203   -1.9930 H       1  UNL1        0.0230
     20 H           7.6777    3.5905   -2.4406 H       1  UNL1        0.0230
@<TRIPOS>BOND
     1     1     2    1
     2     2     3    1
     3     2     4    1
     4     2     5    1
     5     5     6    1
     6     5     7    1
     7     5     8    1
     8     8     9    1
     9     8    10    1
    10     8    11    1
    11    11    12    1
    12    11    13    1
    13    11    14    1
    14    14    15    1
    15    14    16    1
    16    14    17    1
    17    17    18    1
    18    17    19    1
    19    17    20    1
