@<TRIPOS>MOLECULE
input/solvents/pdb/hexane.pdb
 20 19 0 0 0
SMALL
GASTEIGER

@<TRIPOS>ATOM
      1 H           0.9972    0.0522    0.0528 H       1  UNL1        0.0230
      2 C           2.0918    0.0610    0.0482 C.3     1  UNL1       -0.0653
      3 H           2.4381   -0.0003    1.0850 H       1  UNL1        0.0230
      4 H           2.4382   -0.8318   -0.4825 H       1  UNL1        0.0230
      5 C           2.6083    1.3222   -0.6207 C.3     1  UNL1       -0.0559
      6 H           2.2249    1.3729   -1.6468 H       1  UNL1        0.0263
      7 H           2.2248    2.2000   -0.0875 H       1  UNL1        0.0263
      8 C           4.1358    1.3469   -0.6339 C.3     1  UNL1       -0.0533
      9 H           4.5134    1.2904    0.3941 H       1  UNL1        0.0265
     10 H           4.5133    0.4655   -1.1660 H       1  UNL1        0.0265
     11 C           4.6600    2.6142   -1.3038 C.3     1  UNL1       -0.0533
     12 H           4.2813    2.6715   -2.3314 H       1  UNL1        0.0265
     13 H           4.2836    3.4955   -0.7708 H       1  UNL1        0.0265
     14 C           6.1875    2.6380   -1.3187 C.3     1  UNL1       -0.0559
     15 H           6.5721    2.5851   -0.2932 H       1  UNL1        0.0263
     16 H           6.5698    1.7609   -1.8541 H       1  UNL1        0.0263
     17 C           6.7040    3.9001   -1.9859 C.3     1  UNL1       -0.0653
     18 H           6.3565    3.9635   -3.0222 H       1  UNL1        0.0230
     19 H           6.3588    4.7921   -1.4531 H       1  UNL1        0.0230
     20 H           7.7986    3.9082   -1.9918 H       1  UNL1        0.0230
@<TRIPOS>BOND
     1     1     2    1
     2     2     3    1
     3     2     4    1
     4     2     5    1
     5     5     6    1
     6     5     7    1
     7     5     8    1
     8     8     9    1
     9     8    10    1
    10     8    11    1
    11    11    12    1
    12    11    13    1
    13    11    14    1
    14    14    15    1
    15    14    16    1
    16    14    17    1
    17    17    18    1
    18    17    19    1
    19    17    20    1
