@<TRIPOS>MOLECULE
input_data/solvent_pdbs/hexane.pdb
 20 19 0 0 0
SMALL
GASTEIGER

@<TRIPOS>ATOM
      1 H           1.0105    0.0083   -0.0468 H       1  UNL1        0.0230
      2 C           2.1050    0.0126   -0.0558 C.3     1  UNL1       -0.0653
      3 H           2.4514    0.5681    0.8219 H       1  UNL1        0.0230
      4 H           2.4513   -1.0220    0.0345 H       1  UNL1        0.0230
      5 C           2.6216    0.6462   -1.3351 C.3     1  UNL1       -0.0559
      6 H           2.2380    0.0884   -2.1977 H       1  UNL1        0.0263
      7 H           2.2381    1.6702   -1.4145 H       1  UNL1        0.0263
      8 C           4.1490    0.6585   -1.3603 C.3     1  UNL1       -0.0533
      9 H           4.5266    1.2151   -0.4941 H       1  UNL1        0.0265
     10 H           4.5266   -0.3675   -1.2750 H       1  UNL1        0.0265
     11 C           4.6732    1.2928   -2.6457 C.3     1  UNL1       -0.0533
     12 H           4.2946    0.7371   -3.5119 H       1  UNL1        0.0265
     13 H           4.2968    2.3193   -2.7302 H       1  UNL1        0.0265
     14 C           6.2007    1.3034   -2.6717 C.3     1  UNL1       -0.0559
     15 H           6.5854    1.8614   -1.8098 H       1  UNL1        0.0263
     16 H           6.5830    0.2790   -2.5916 H       1  UNL1        0.0263
     17 C           6.7173    1.9351   -3.9519 C.3     1  UNL1       -0.0653
     18 H           6.3697    1.3792   -4.8288 H       1  UNL1        0.0230
     19 H           6.3721    2.9701   -4.0429 H       1  UNL1        0.0230
     20 H           7.8118    1.9382   -3.9615 H       1  UNL1        0.0230
@<TRIPOS>BOND
     1     1     2    1
     2     2     3    1
     3     2     4    1
     4     2     5    1
     5     5     6    1
     6     5     7    1
     7     5     8    1
     8     8     9    1
     9     8    10    1
    10     8    11    1
    11    11    12    1
    12    11    13    1
    13    11    14    1
    14    14    15    1
    15    14    16    1
    16    14    17    1
    17    17    18    1
    18    17    19    1
    19    17    20    1
