@<TRIPOS>MOLECULE
input_data/solvent_pdbs/hexane.pdb
 20 19 0 0 0
SMALL
GASTEIGER

@<TRIPOS>ATOM
      1 H           1.0206    0.0415   -0.0940 H       1  UNL1        0.0230
      2 C           2.1151    0.0363   -0.0855 C.3     1  UNL1       -0.0653
      3 H           2.4614   -0.4392   -1.0089 H       1  UNL1        0.0230
      4 H           2.4615    1.0749   -0.0838 H       1  UNL1        0.0230
      5 C           2.6317   -0.7081    1.1326 C.3     1  UNL1       -0.0559
      6 H           2.2482   -0.2289    2.0413 H       1  UNL1        0.0263
      7 H           2.2482   -1.7351    1.1210 H       1  UNL1        0.0263
      8 C           4.1591   -0.7226    1.1566 C.3     1  UNL1       -0.0533
      9 H           4.5367   -1.1978    0.2432 H       1  UNL1        0.0265
     10 H           4.5366    0.3069    1.1654 H       1  UNL1        0.0265
     11 C           4.6833   -1.4718    2.3786 C.3     1  UNL1       -0.0533
     12 H           4.3046   -0.9975    3.2921 H       1  UNL1        0.0265
     13 H           4.3070   -2.5017    2.3691 H       1  UNL1        0.0265
     14 C           6.2108   -1.4846    2.4037 C.3     1  UNL1       -0.0559
     15 H           6.5955   -1.9616    1.4943 H       1  UNL1        0.0263
     16 H           6.5931   -0.4572    2.4175 H       1  UNL1        0.0263
     17 C           6.7274   -2.2307    3.6207 C.3     1  UNL1       -0.0653
     18 H           6.3798   -1.7573    4.5448 H       1  UNL1        0.0230
     19 H           6.3822   -3.2697    3.6168 H       1  UNL1        0.0230
     20 H           7.8219   -2.2347    3.6300 H       1  UNL1        0.0230
@<TRIPOS>BOND
     1     1     2    1
     2     2     3    1
     3     2     4    1
     4     2     5    1
     5     5     6    1
     6     5     7    1
     7     5     8    1
     8     8     9    1
     9     8    10    1
    10     8    11    1
    11    11    12    1
    12    11    13    1
    13    11    14    1
    14    14    15    1
    15    14    16    1
    16    14    17    1
    17    17    18    1
    18    17    19    1
    19    17    20    1
