@<TRIPOS>MOLECULE
input/solvents/pdb/hexane.pdb
 20 19 0 0 0
SMALL
GASTEIGER

@<TRIPOS>ATOM
      1 H           1.0133    0.1020    0.0070 H       1  UNL1        0.0230
      2 C           2.1078    0.0930    0.0113 C.3     1  UNL1       -0.0653
      3 H           2.4541    0.1964   -1.0222 H       1  UNL1        0.0230
      4 H           2.4542    0.9635    0.5778 H       1  UNL1        0.0230
      5 C           2.6244   -1.1943    0.6284 C.3     1  UNL1       -0.0559
      6 H           2.2409   -1.2867    1.6515 H       1  UNL1        0.0263
      7 H           2.2409   -2.0497    0.0599 H       1  UNL1        0.0263
      8 C           4.1518   -1.2195    0.6406 C.3     1  UNL1       -0.0533
      9 H           4.5294   -1.1213   -0.3844 H       1  UNL1        0.0265
     10 H           4.5294   -0.3605    1.2081 H       1  UNL1        0.0265
     11 C           4.6760   -2.5130    1.2584 C.3     1  UNL1       -0.0533
     12 H           4.2996   -2.6106    2.2838 H       1  UNL1        0.0265
     13 H           4.2974   -3.3720    0.6917 H       1  UNL1        0.0265
     14 C           6.2035   -2.5391    1.2687 C.3     1  UNL1       -0.0559
     15 H           6.5858   -2.4460    0.2452 H       1  UNL1        0.0263
     16 H           6.5881   -1.6844    1.8375 H       1  UNL1        0.0263
     17 C           6.7201   -3.8273    1.8840 C.3     1  UNL1       -0.0653
     18 H           6.3749   -3.9314    2.9178 H       1  UNL1        0.0230
     19 H           6.3725   -4.6970    1.3171 H       1  UNL1        0.0230
     20 H           7.8146   -3.8369    1.8870 H       1  UNL1        0.0230
@<TRIPOS>BOND
     1     1     2    1
     2     2     3    1
     3     2     4    1
     4     2     5    1
     5     5     6    1
     6     5     7    1
     7     5     8    1
     8     8     9    1
     9     8    10    1
    10     8    11    1
    11    11    12    1
    12    11    13    1
    13    11    14    1
    14    14    15    1
    15    14    16    1
    16    14    17    1
    17    17    18    1
    18    17    19    1
    19    17    20    1
