@<TRIPOS>MOLECULE
styrene.pdb
 16 16 0 0 0
SMALL
GASTEIGER

@<TRIPOS>ATOM
      1 C           1.1015    0.1414    0.0607 C.2     1  UNL1       -0.0981
      2 C           0.3434    1.1067   -0.4764 C.2     1  UNL1       -0.0617
      3 C          -1.1239    1.1626   -0.4041 C.ar    1  UNL1       -0.0256
      4 C          -1.8458    0.6402    0.6774 C.ar    1  UNL1       -0.0546
      5 C          -3.2393    0.7429    0.7219 C.ar    1  UNL1       -0.0612
      6 C          -3.9259    1.3792   -0.3090 C.ar    1  UNL1       -0.0617
      7 C          -3.2208    1.9171   -1.3829 C.ar    1  UNL1       -0.0612
      8 C          -1.8272    1.8133   -1.4275 C.ar    1  UNL1       -0.0546
      9 H           0.6818   -0.7027    0.5980 H       1  UNL1        0.0535
     10 H           2.1818    0.1717   -0.0428 H       1  UNL1        0.0535
     11 H           0.8272    1.9112   -1.0261 H       1  UNL1        0.0618
     12 H          -1.3335    0.1573    1.5050 H       1  UNL1        0.0623
     13 H          -3.7851    0.3302    1.5661 H       1  UNL1        0.0618
     14 H          -5.0092    1.4603   -0.2729 H       1  UNL1        0.0618
     15 H          -3.7529    2.4190   -2.1865 H       1  UNL1        0.0618
     16 H          -1.2965    2.2407   -2.2751 H       1  UNL1        0.0623
@<TRIPOS>BOND
     1     1     2    2
     2     1     9    1
     3     1    10    1
     4     2     3    1
     5     2    11    1
     6     3     4   ar
     7     3     8   ar
     8     4     5   ar
     9     4    12    1
    10     5     6   ar
    11     5    13    1
    12     6     7   ar
    13     6    14    1
    14     7     8   ar
    15     7    15    1
    16     8    16    1
