@<TRIPOS>MOLECULE
/home/reina/polymerpinn/preprocessed/solvent_pdbs/CCCCCC.pdb
 20 19 0 0 0
SMALL
GASTEIGER

@<TRIPOS>ATOM
      1 C           1.0328   -0.0429    0.0706 C.3     1  UNL1       -0.0653
      2 C           2.5512   -0.0492    0.0601 C.3     1  UNL1       -0.0559
      3 C           3.0873   -0.9678   -1.0357 C.3     1  UNL1       -0.0533
      4 C           4.6138   -0.9783   -1.0482 C.3     1  UNL1       -0.0533
      5 C           5.1498   -1.8954   -2.1452 C.3     1  UNL1       -0.0559
      6 C           6.6681   -1.9029   -2.1540 C.3     1  UNL1       -0.0653
      7 H           0.6598    0.6179    0.8590 H       1  UNL1        0.0230
      8 H           0.6394   -1.0482    0.2538 H       1  UNL1        0.0230
      9 H           0.6371    0.3112   -0.8869 H       1  UNL1        0.0230
     10 H           2.9195   -0.3796    1.0386 H       1  UNL1        0.0263
     11 H           2.9172    0.9725   -0.0960 H       1  UNL1        0.0263
     12 H           2.7138   -0.6341   -2.0116 H       1  UNL1        0.0265
     13 H           2.7138   -1.9869   -0.8776 H       1  UNL1        0.0265
     14 H           4.9872   -1.3133   -0.0727 H       1  UNL1        0.0265
     15 H           4.9874    0.0411   -1.2049 H       1  UNL1        0.0265
     16 H           4.7827   -1.5627   -3.1234 H       1  UNL1        0.0263
     17 H           4.7826   -2.9170   -1.9914 H       1  UNL1        0.0263
     18 H           7.0628   -0.8980   -2.3354 H       1  UNL1        0.0230
     19 H           7.0413   -2.5629   -2.9438 H       1  UNL1        0.0230
     20 H           7.0627   -2.2595   -1.1973 H       1  UNL1        0.0230
@<TRIPOS>BOND
     1     1     2    1
     2     2     3    1
     3     3     4    1
     4     4     5    1
     5     5     6    1
     6     1     7    1
     7     1     8    1
     8     1     9    1
     9     2    10    1
    10     2    11    1
    11     3    12    1
    12     3    13    1
    13     4    14    1
    14     4    15    1
    15     5    16    1
    16     5    17    1
    17     6    18    1
    18     6    19    1
    19     6    20    1
