@<TRIPOS>MOLECULE
/home/reina/polymerpinn/preprocessed/solvent_pdbs/CCCCCC.pdb
   20    19     1     0     0
SMALL
bcc


@<TRIPOS>ATOM
      1 C            1.0330    -0.0430     0.0710 c3         1 UNL      -0.092100
      2 C1           2.5510    -0.0490     0.0600 c3         1 UNL      -0.080400
      3 C2           3.0870    -0.9680    -1.0360 c3         1 UNL      -0.079400
      4 C3           4.6140    -0.9780    -1.0480 c3         1 UNL      -0.079400
      5 C4           5.1500    -1.8950    -2.1450 c3         1 UNL      -0.080400
      6 C5           6.6680    -1.9030    -2.1540 c3         1 UNL      -0.092100
      7 H            0.6600     0.6180     0.8590 hc         1 UNL       0.032700
      8 H1           0.6390    -1.0480     0.2540 hc         1 UNL       0.032700
      9 H2           0.6370     0.3110    -0.8870 hc         1 UNL       0.032700
     10 H3           2.9200    -0.3800     1.0390 hc         1 UNL       0.038700
     11 H4           2.9170     0.9730    -0.0960 hc         1 UNL       0.038700
     12 H5           2.7140    -0.6340    -2.0120 hc         1 UNL       0.038700
     13 H6           2.7140    -1.9870    -0.8780 hc         1 UNL       0.038700
     14 H7           4.9870    -1.3130    -0.0730 hc         1 UNL       0.038700
     15 H8           4.9870     0.0410    -1.2050 hc         1 UNL       0.038700
     16 H9           4.7830    -1.5630    -3.1230 hc         1 UNL       0.038700
     17 H10          4.7830    -2.9170    -1.9910 hc         1 UNL       0.038700
     18 H11          7.0630    -0.8980    -2.3350 hc         1 UNL       0.032700
     19 H12          7.0410    -2.5630    -2.9440 hc         1 UNL       0.032700
     20 H13          7.0630    -2.2600    -1.1970 hc         1 UNL       0.032700
@<TRIPOS>BOND
     1     1     2 1   
     2     2     3 1   
     3     3     4 1   
     4     4     5 1   
     5     5     6 1   
     6     1     7 1   
     7     1     8 1   
     8     1     9 1   
     9     2    10 1   
    10     2    11 1   
    11     3    12 1   
    12     3    13 1   
    13     4    14 1   
    14     4    15 1   
    15     5    16 1   
    16     5    17 1   
    17     6    18 1   
    18     6    19 1   
    19     6    20 1   
@<TRIPOS>SUBSTRUCTURE
     1 UNL         1 TEMP              0 ****  ****    0 ROOT
