@<TRIPOS>MOLECULE
input_data/solvent_pdbs/hexane.pdb
 20 19 0 0 0
SMALL
GASTEIGER

@<TRIPOS>ATOM
      1 H           0.8524   -0.0132   -0.0108 H       1  UNL1        0.0230
      2 C           1.9469   -0.0034   -0.0127 C.3     1  UNL1       -0.0653
      3 H           2.2933   -0.3659    0.9606 H       1  UNL1        0.0230
      4 H           2.2932   -0.7014   -0.7818 H       1  UNL1        0.0230
      5 C           2.4635    1.3984   -0.2826 C.3     1  UNL1       -0.0559
      6 H           2.0799    1.7477   -1.2487 H       1  UNL1        0.0263
      7 H           2.0800    2.0814    0.4846 H       1  UNL1        0.0263
      8 C           3.9909    1.4260   -0.2880 C.3     1  UNL1       -0.0533
      9 H           4.3685    1.0732    0.6793 H       1  UNL1        0.0265
     10 H           4.3685    0.7372   -1.0532 H       1  UNL1        0.0265
     11 C           4.5151    2.8331   -0.5609 C.3     1  UNL1       -0.0533
     12 H           4.1365    3.1864   -1.5276 H       1  UNL1        0.0265
     13 H           4.1387    3.5217    0.2051 H       1  UNL1        0.0265
     14 C           6.0426    2.8603   -0.5683 C.3     1  UNL1       -0.0559
     15 H           6.4273    2.5118    0.3976 H       1  UNL1        0.0263
     16 H           6.4249    2.1765   -1.3353 H       1  UNL1        0.0263
     17 C           6.5592    4.2617   -0.8401 C.3     1  UNL1       -0.0653
     18 H           6.2116    4.6234   -1.8133 H       1  UNL1        0.0230
     19 H           6.2140    4.9605   -0.0712 H       1  UNL1        0.0230
     20 H           7.6537    4.2712   -0.8434 H       1  UNL1        0.0230
@<TRIPOS>BOND
     1     1     2    1
     2     2     3    1
     3     2     4    1
     4     2     5    1
     5     5     6    1
     6     5     7    1
     7     5     8    1
     8     8     9    1
     9     8    10    1
    10     8    11    1
    11    11    12    1
    12    11    13    1
    13    11    14    1
    14    14    15    1
    15    14    16    1
    16    14    17    1
    17    17    18    1
    18    17    19    1
    19    17    20    1
