@<TRIPOS>MOLECULE
input/solvents/pdb/hexane.pdb
 20 19 0 0 0
SMALL
GASTEIGER

@<TRIPOS>ATOM
      1 H           0.9883    0.0870    0.0414 H       1  UNL1        0.0230
      2 C           2.0828    0.0807    0.0492 C.3     1  UNL1       -0.0653
      3 H           2.4293   -0.2632   -0.9309 H       1  UNL1        0.0230
      4 H           2.4292    1.1092    0.1939 H       1  UNL1        0.0230
      5 C           2.5994   -0.8243    1.1532 C.3     1  UNL1       -0.0559
      6 H           2.2159   -0.4748    2.1192 H       1  UNL1        0.0263
      7 H           2.2160   -1.8400    1.0003 H       1  UNL1        0.0263
      8 C           4.1269   -0.8420    1.1750 C.3     1  UNL1       -0.0533
      9 H           4.5044   -1.1895    0.2058 H       1  UNL1        0.0265
     10 H           4.5044    0.1769    1.3226 H       1  UNL1        0.0265
     11 C           4.6511   -1.7491    2.2848 C.3     1  UNL1       -0.0533
     12 H           4.2724   -1.4024    3.2538 H       1  UNL1        0.0265
     13 H           4.2747   -2.7683    2.1364 H       1  UNL1        0.0265
     14 C           6.1786   -1.7652    2.3078 C.3     1  UNL1       -0.0559
     15 H           6.5632   -2.1152    1.3425 H       1  UNL1        0.0263
     16 H           6.5609   -0.7491    2.4601 H       1  UNL1        0.0263
     17 C           6.6951   -2.6687    3.4131 C.3     1  UNL1       -0.0653
     18 H           6.3476   -2.3243    4.3926 H       1  UNL1        0.0230
     19 H           6.3499   -3.6976    3.2691 H       1  UNL1        0.0230
     20 H           7.7896   -2.6739    3.4218 H       1  UNL1        0.0230
@<TRIPOS>BOND
     1     1     2    1
     2     2     3    1
     3     2     4    1
     4     2     5    1
     5     5     6    1
     6     5     7    1
     7     5     8    1
     8     8     9    1
     9     8    10    1
    10     8    11    1
    11    11    12    1
    12    11    13    1
    13    11    14    1
    14    14    15    1
    15    14    16    1
    16    14    17    1
    17    17    18    1
    18    17    19    1
    19    17    20    1
