@<TRIPOS>MOLECULE
input/solvents/pdb/hexane.pdb
 20 19 0 0 0
SMALL
GASTEIGER

@<TRIPOS>ATOM
      1 H           0.8520    0.0382    0.0358 H       1  UNL1        0.0230
      2 C           1.9465    0.0295    0.0308 C.3     1  UNL1       -0.0653
      3 H           2.2929    0.9424   -0.4647 H       1  UNL1        0.0230
      4 H           2.2929    0.0504    1.0692 H       1  UNL1        0.0230
      5 C           2.4631   -1.2044   -0.6870 C.3     1  UNL1       -0.0559
      6 H           2.0796   -2.1025   -0.1882 H       1  UNL1        0.0263
      7 H           2.0796   -1.2151   -1.7140 H       1  UNL1        0.0263
      8 C           3.9906   -1.2287   -0.7010 C.3     1  UNL1       -0.0533
      9 H           4.3681   -0.3258   -1.1958 H       1  UNL1        0.0265
     10 H           4.3681   -1.2152    0.3285 H       1  UNL1        0.0265
     11 C           4.5147   -2.4668   -1.4234 C.3     1  UNL1       -0.0533
     12 H           4.1361   -3.3697   -0.9295 H       1  UNL1        0.0265
     13 H           4.1384   -2.4795   -2.4533 H       1  UNL1        0.0265
     14 C           6.0422   -2.4920   -1.4358 C.3     1  UNL1       -0.0559
     15 H           6.4269   -1.5932   -1.9324 H       1  UNL1        0.0263
     16 H           6.4245   -2.4835   -0.4083 H       1  UNL1        0.0263
     17 C           6.5588   -3.7250   -2.1553 C.3     1  UNL1       -0.0653
     18 H           6.2112   -4.6386   -1.6619 H       1  UNL1        0.0230
     19 H           6.2136   -3.7436   -3.1941 H       1  UNL1        0.0230
     20 H           7.6533   -3.7344   -2.1590 H       1  UNL1        0.0230
@<TRIPOS>BOND
     1     1     2    1
     2     2     3    1
     3     2     4    1
     4     2     5    1
     5     5     6    1
     6     5     7    1
     7     5     8    1
     8     8     9    1
     9     8    10    1
    10     8    11    1
    11    11    12    1
    12    11    13    1
    13    11    14    1
    14    14    15    1
    15    14    16    1
    16    14    17    1
    17    17    18    1
    18    17    19    1
    19    17    20    1
