@<TRIPOS>MOLECULE
input/solvents/pdb/hexane.pdb
 20 19 0 0 0
SMALL
GASTEIGER

@<TRIPOS>ATOM
      1 H           1.0035    0.0920   -0.0581 H       1  UNL1        0.0230
      2 C           2.0980    0.0820   -0.0579 C.3     1  UNL1       -0.0653
      3 H           2.4444    0.6104   -0.9521 H       1  UNL1        0.0230
      4 H           2.4444    0.6335    0.8222 H       1  UNL1        0.0230
      5 C           2.6146   -1.3454   -0.0394 C.3     1  UNL1       -0.0559
      6 H           2.2311   -1.8595    0.8500 H       1  UNL1        0.0263
      7 H           2.2312   -1.8825   -0.9149 H       1  UNL1        0.0263
      8 C           4.1421   -1.3735   -0.0389 C.3     1  UNL1       -0.0533
      9 H           4.5196   -0.8558   -0.9289 H       1  UNL1        0.0265
     10 H           4.5196   -0.8303    0.8358 H       1  UNL1        0.0265
     11 C           4.6662   -2.8067   -0.0183 C.3     1  UNL1       -0.0533
     12 H           4.2876   -3.3249    0.8710 H       1  UNL1        0.0265
     13 H           4.2899   -3.3495   -0.8936 H       1  UNL1        0.0265
     14 C           6.1937   -2.8347   -0.0158 C.3     1  UNL1       -0.0559
     15 H           6.5784   -2.3215   -0.9051 H       1  UNL1        0.0263
     16 H           6.5760   -2.2969    0.8598 H       1  UNL1        0.0263
     17 C           6.7103   -4.2621    0.0048 C.3     1  UNL1       -0.0653
     18 H           6.3627   -4.7897    0.8990 H       1  UNL1        0.0230
     19 H           6.3651   -4.8145   -0.8753 H       1  UNL1        0.0230
     20 H           7.8048   -4.2721    0.0064 H       1  UNL1        0.0230
@<TRIPOS>BOND
     1     1     2    1
     2     2     3    1
     3     2     4    1
     4     2     5    1
     5     5     6    1
     6     5     7    1
     7     5     8    1
     8     8     9    1
     9     8    10    1
    10     8    11    1
    11    11    12    1
    12    11    13    1
    13    11    14    1
    14    14    15    1
    15    14    16    1
    16    14    17    1
    17    17    18    1
    18    17    19    1
    19    17    20    1
