@<TRIPOS>MOLECULE
input_data/solvent_pdbs/hexane.pdb
 20 19 0 0 0
SMALL
GASTEIGER

@<TRIPOS>ATOM
      1 H           0.8770   -0.0479   -0.0001 H       1  UNL1        0.0230
      2 C           1.9715   -0.0518    0.0091 C.3     1  UNL1       -0.0653
      3 H           2.3179   -0.6536   -0.8375 H       1  UNL1        0.0230
      4 H           2.3179    0.9765   -0.1367 H       1  UNL1        0.0230
      5 C           2.4881   -0.6157    1.3205 C.3     1  UNL1       -0.0559
      6 H           2.1046   -0.0123    2.1520 H       1  UNL1        0.0263
      7 H           2.1046   -1.6339    1.4549 H       1  UNL1        0.0263
      8 C           4.0156   -0.6266    1.3463 C.3     1  UNL1       -0.0533
      9 H           4.3931   -1.2290    0.5113 H       1  UNL1        0.0265
     10 H           4.3931    0.3933    1.2061 H       1  UNL1        0.0265
     11 C           4.5397   -1.1910    2.6640 C.3     1  UNL1       -0.0533
     12 H           4.1634   -0.5877    3.4989 H       1  UNL1        0.0265
     13 H           4.1611   -2.2104    2.8050 H       1  UNL1        0.0265
     14 C           6.0672   -1.2037    2.6890 C.3     1  UNL1       -0.0559
     15 H           6.4495   -1.8091    1.8585 H       1  UNL1        0.0263
     16 H           6.4519   -0.1862    2.5525 H       1  UNL1        0.0263
     17 C           6.5838   -1.7658    4.0013 C.3     1  UNL1       -0.0653
     18 H           6.2386   -1.1619    4.8469 H       1  UNL1        0.0230
     19 H           6.2362   -2.7934    4.1492 H       1  UNL1        0.0230
     20 H           7.6783   -1.7710    4.0099 H       1  UNL1        0.0230
@<TRIPOS>BOND
     1     1     2    1
     2     2     3    1
     3     2     4    1
     4     2     5    1
     5     5     6    1
     6     5     7    1
     7     5     8    1
     8     8     9    1
     9     8    10    1
    10     8    11    1
    11    11    12    1
    12    11    13    1
    13    11    14    1
    14    14    15    1
    15    14    16    1
    16    14    17    1
    17    17    18    1
    18    17    19    1
    19    17    20    1
