@<TRIPOS>MOLECULE
input/solvents/pdb/hexane.pdb
 20 19 0 0 0
SMALL
GASTEIGER

@<TRIPOS>ATOM
      1 H           1.0020    0.0407    0.0333 H       1  UNL1        0.0230
      2 C           2.0966    0.0491    0.0387 C.3     1  UNL1       -0.0653
      3 H           2.4429   -0.8856    0.4918 H       1  UNL1        0.0230
      4 H           2.4430    0.0759   -0.9996 H       1  UNL1        0.0230
      5 C           2.6131    1.2488    0.8123 C.3     1  UNL1       -0.0559
      6 H           2.2297    2.1688    0.3553 H       1  UNL1        0.0263
      7 H           2.2296    1.2124    1.8387 H       1  UNL1        0.0263
      8 C           4.1406    1.2724    0.8275 C.3     1  UNL1       -0.0533
      9 H           4.5182    0.3478    1.2804 H       1  UNL1        0.0265
     10 H           4.5181    1.3061   -0.2016 H       1  UNL1        0.0265
     11 C           4.6648    2.4760    1.6059 C.3     1  UNL1       -0.0533
     12 H           4.2861    3.4006    1.1539 H       1  UNL1        0.0265
     13 H           4.2884    2.4415    2.6353 H       1  UNL1        0.0265
     14 C           6.1923    2.5007    1.6194 C.3     1  UNL1       -0.0559
     15 H           6.5769    1.5801    2.0743 H       1  UNL1        0.0263
     16 H           6.5746    2.5393    0.5926 H       1  UNL1        0.0263
     17 C           6.7088    3.6994    2.3947 C.3     1  UNL1       -0.0653
     18 H           6.3613    4.6346    1.9438 H       1  UNL1        0.0230
     19 H           6.3636    3.6703    3.4333 H       1  UNL1        0.0230
     20 H           7.8034    3.7085    2.3989 H       1  UNL1        0.0230
@<TRIPOS>BOND
     1     1     2    1
     2     2     3    1
     3     2     4    1
     4     2     5    1
     5     5     6    1
     6     5     7    1
     7     5     8    1
     8     8     9    1
     9     8    10    1
    10     8    11    1
    11    11    12    1
    12    11    13    1
    13    11    14    1
    14    14    15    1
    15    14    16    1
    16    14    17    1
    17    17    18    1
    18    17    19    1
    19    17    20    1
