@<TRIPOS>MOLECULE
input/solvents/pdb/hexane.pdb
 20 19 0 0 0
SMALL
GASTEIGER

@<TRIPOS>ATOM
      1 H           1.0068    0.0338    0.0358 H       1  UNL1        0.0230
      2 C           2.1013    0.0410    0.0427 C.3     1  UNL1       -0.0653
      3 H           2.4477   -0.9613    0.3152 H       1  UNL1        0.0230
      4 H           2.4477    0.2594   -0.9727 H       1  UNL1        0.0230
      5 C           2.6179    1.0771    1.0248 C.3     1  UNL1       -0.0559
      6 H           2.2344    2.0657    0.7458 H       1  UNL1        0.0263
      7 H           2.2344    0.8515    2.0268 H       1  UNL1        0.0263
      8 C           4.1453    1.0975    1.0441 C.3     1  UNL1       -0.0533
      9 H           4.5229    0.1050    1.3182 H       1  UNL1        0.0265
     10 H           4.5228    1.3208    0.0390 H       1  UNL1        0.0265
     11 C           4.6695    2.1364    2.0316 C.3     1  UNL1       -0.0533
     12 H           4.2908    3.1286    1.7584 H       1  UNL1        0.0265
     13 H           4.2932    1.9121    3.0369 H       1  UNL1        0.0265
     14 C           6.1970    2.1581    2.0494 C.3     1  UNL1       -0.0559
     15 H           6.5817    1.1693    2.3262 H       1  UNL1        0.0263
     16 H           6.5793    2.3860    1.0475 H       1  UNL1        0.0263
     17 C           6.7136    3.1928    3.0330 C.3     1  UNL1       -0.0653
     18 H           6.3660    4.1953    2.7628 H       1  UNL1        0.0230
     19 H           6.3684    2.9722    4.0483 H       1  UNL1        0.0230
     20 H           7.8081    3.2010    3.0388 H       1  UNL1        0.0230
@<TRIPOS>BOND
     1     1     2    1
     2     2     3    1
     3     2     4    1
     4     2     5    1
     5     5     6    1
     6     5     7    1
     7     5     8    1
     8     8     9    1
     9     8    10    1
    10     8    11    1
    11    11    12    1
    12    11    13    1
    13    11    14    1
    14    14    15    1
    15    14    16    1
    16    14    17    1
    17    17    18    1
    18    17    19    1
    19    17    20    1
