@<TRIPOS>MOLECULE
input/solvents/pdb/hexane.pdb
 20 19 0 0 0
SMALL
GASTEIGER

@<TRIPOS>ATOM
      1 H           1.0303   -0.0659   -0.0331 H       1  UNL1        0.0230
      2 C           2.1249   -0.0643   -0.0233 C.3     1  UNL1       -0.0653
      3 H           2.4712   -1.0278   -0.4111 H       1  UNL1        0.0230
      4 H           2.4713    0.7228   -0.7010 H       1  UNL1        0.0230
      5 C           2.6414    0.1688    1.3851 C.3     1  UNL1       -0.0559
      6 H           2.2580    1.1255    1.7595 H       1  UNL1        0.0263
      7 H           2.2579   -0.6159    2.0478 H       1  UNL1        0.0263
      8 C           4.1689    0.1735    1.4128 C.3     1  UNL1       -0.0533
      9 H           4.5465   -0.7832    1.0322 H       1  UNL1        0.0265
     10 H           4.5464    0.9583    0.7464 H       1  UNL1        0.0265
     11 C           4.6931    0.4056    2.8273 C.3     1  UNL1       -0.0533
     12 H           4.3144    1.3616    3.2084 H       1  UNL1        0.0265
     13 H           4.3167   -0.3801    3.4933 H       1  UNL1        0.0265
     14 C           6.2206    0.4122    2.8546 C.3     1  UNL1       -0.0559
     15 H           6.6052   -0.5433    2.4783 H       1  UNL1        0.0263
     16 H           6.6029    1.1986    2.1934 H       1  UNL1        0.0263
     17 C           6.7371    0.6433    4.2633 C.3     1  UNL1       -0.0653
     18 H           6.3896    1.6056    4.6531 H       1  UNL1        0.0230
     19 H           6.3919   -0.1455    4.9396 H       1  UNL1        0.0230
     20 H           7.8317    0.6463    4.2729 H       1  UNL1        0.0230
@<TRIPOS>BOND
     1     1     2    1
     2     2     3    1
     3     2     4    1
     4     2     5    1
     5     5     6    1
     6     5     7    1
     7     5     8    1
     8     8     9    1
     9     8    10    1
    10     8    11    1
    11    11    12    1
    12    11    13    1
    13    11    14    1
    14    14    15    1
    15    14    16    1
    16    14    17    1
    17    17    18    1
    18    17    19    1
    19    17    20    1
