@<TRIPOS>MOLECULE
input/solvents/pdb/hexane.pdb
 20 19 0 0 0
SMALL
GASTEIGER

@<TRIPOS>ATOM
      1 H           0.9664    0.0714    0.0582 H       1  UNL1        0.0230
      2 C           2.0609    0.0784    0.0510 C.3     1  UNL1       -0.0653
      3 H           2.4073    0.3412    1.0558 H       1  UNL1        0.0230
      4 H           2.4074   -0.9349   -0.1770 H       1  UNL1        0.0230
      5 C           2.5775    1.0703   -0.9756 C.3     1  UNL1       -0.0559
      6 H           2.1941    0.8007   -1.9669 H       1  UNL1        0.0263
      7 H           2.1940    2.0701   -0.7405 H       1  UNL1        0.0263
      8 C           4.1050    1.0897   -0.9958 C.3     1  UNL1       -0.0533
      9 H           4.4826    1.3544   -0.0008 H       1  UNL1        0.0265
     10 H           4.4825    0.0869   -1.2288 H       1  UNL1        0.0265
     11 C           4.6292    2.0872   -2.0253 C.3     1  UNL1       -0.0533
     12 H           4.2505    1.8234   -3.0201 H       1  UNL1        0.0265
     13 H           4.2528    3.0903   -1.7915 H       1  UNL1        0.0265
     14 C           6.1567    2.1052   -2.0469 C.3     1  UNL1       -0.0559
     15 H           6.5413    2.3726   -1.0554 H       1  UNL1        0.0263
     16 H           6.5390    1.1055   -2.2843 H       1  UNL1        0.0263
     17 C           6.6732    3.0986   -3.0721 C.3     1  UNL1       -0.0653
     18 H           6.3257    2.8380   -4.0771 H       1  UNL1        0.0230
     19 H           6.3280    4.1118   -2.8418 H       1  UNL1        0.0230
     20 H           7.7678    3.1045   -3.0803 H       1  UNL1        0.0230
@<TRIPOS>BOND
     1     1     2    1
     2     2     3    1
     3     2     4    1
     4     2     5    1
     5     5     6    1
     6     5     7    1
     7     5     8    1
     8     8     9    1
     9     8    10    1
    10     8    11    1
    11    11    12    1
    12    11    13    1
    13    11    14    1
    14    14    15    1
    15    14    16    1
    16    14    17    1
    17    17    18    1
    18    17    19    1
    19    17    20    1
