@<TRIPOS>MOLECULE
input_data/solvent_pdbs/hexane.pdb
 20 19 0 0 0
SMALL
GASTEIGER

@<TRIPOS>ATOM
      1 H           0.9874   -0.0514   -0.0923 H       1  UNL1        0.0230
      2 C           2.0819   -0.0567   -0.0838 C.3     1  UNL1       -0.0653
      3 H           2.4283   -0.5210   -1.0130 H       1  UNL1        0.0230
      4 H           2.4283    0.9818   -0.0695 H       1  UNL1        0.0230
      5 C           2.5985   -0.8159    1.1251 C.3     1  UNL1       -0.0559
      6 H           2.2150   -0.3478    2.0396 H       1  UNL1        0.0263
      7 H           2.2150   -1.8427    1.1010 H       1  UNL1        0.0263
      8 C           4.1260   -0.8307    1.1489 C.3     1  UNL1       -0.0533
      9 H           4.5035   -1.2947    0.2298 H       1  UNL1        0.0265
     10 H           4.5035    0.1986    1.1702 H       1  UNL1        0.0265
     11 C           4.6501   -1.5947    2.3618 C.3     1  UNL1       -0.0533
     12 H           4.2715   -1.1316    3.2809 H       1  UNL1        0.0265
     13 H           4.2738   -2.6244    2.3396 H       1  UNL1        0.0265
     14 C           6.1776   -1.6078    2.3866 C.3     1  UNL1       -0.0559
     15 H           6.5623   -2.0737    1.4715 H       1  UNL1        0.0263
     16 H           6.5599   -0.5807    2.4129 H       1  UNL1        0.0263
     17 C           6.6942   -2.3687    3.5945 C.3     1  UNL1       -0.0653
     18 H           6.3466   -1.9066    4.5243 H       1  UNL1        0.0230
     19 H           6.3490   -3.4076    3.5779 H       1  UNL1        0.0230
     20 H           7.7887   -2.3728    3.6037 H       1  UNL1        0.0230
@<TRIPOS>BOND
     1     1     2    1
     2     2     3    1
     3     2     4    1
     4     2     5    1
     5     5     6    1
     6     5     7    1
     7     5     8    1
     8     8     9    1
     9     8    10    1
    10     8    11    1
    11    11    12    1
    12    11    13    1
    13    11    14    1
    14    14    15    1
    15    14    16    1
    16    14    17    1
    17    17    18    1
    18    17    19    1
    19    17    20    1
