@<TRIPOS>MOLECULE
input_data/solvent_pdbs/hexane.pdb
 20 19 0 0 0
SMALL
GASTEIGER

@<TRIPOS>ATOM
      1 H           0.9895   -0.0017    0.0654 H       1  UNL1        0.0230
      2 C           2.0840   -0.0085    0.0727 C.3     1  UNL1       -0.0653
      3 H           2.4304   -0.2922   -0.9265 H       1  UNL1        0.0230
      4 H           2.4304    1.0093    0.2796 H       1  UNL1        0.0230
      5 C           2.6006   -0.9788    1.1197 C.3     1  UNL1       -0.0559
      6 H           2.2171   -0.6887    2.1052 H       1  UNL1        0.0263
      7 H           2.2172   -1.9833    0.9055 H       1  UNL1        0.0263
      8 C           4.1281   -0.9978    1.1404 C.3     1  UNL1       -0.0533
      9 H           4.5056   -1.2859    0.1519 H       1  UNL1        0.0265
     10 H           4.5056    0.0102    1.3496 H       1  UNL1        0.0265
     11 C           4.6523   -1.9707    2.1931 C.3     1  UNL1       -0.0533
     12 H           4.2759   -1.6818    3.1818 H       1  UNL1        0.0265
     13 H           4.2736   -2.9785    1.9847 H       1  UNL1        0.0265
     14 C           6.1797   -1.9911    2.2124 C.3     1  UNL1       -0.0559
     15 H           6.5621   -2.2835    1.2272 H       1  UNL1        0.0263
     16 H           6.5644   -0.9866    2.4244 H       1  UNL1        0.0263
     17 C           6.6963   -2.9600    3.2608 C.3     1  UNL1       -0.0653
     18 H           6.3511   -2.6741    4.2597 H       1  UNL1        0.0230
     19 H           6.3488   -3.9778    3.0561 H       1  UNL1        0.0230
     20 H           7.7908   -2.9678    3.2672 H       1  UNL1        0.0230
@<TRIPOS>BOND
     1     1     2    1
     2     2     3    1
     3     2     4    1
     4     2     5    1
     5     5     6    1
     6     5     7    1
     7     5     8    1
     8     8     9    1
     9     8    10    1
    10     8    11    1
    11    11    12    1
    12    11    13    1
    13    11    14    1
    14    14    15    1
    15    14    16    1
    16    14    17    1
    17    17    18    1
    18    17    19    1
    19    17    20    1
