@<TRIPOS>MOLECULE
input/solvents/pdb/hexane.pdb
 20 19 0 0 0
SMALL
GASTEIGER

@<TRIPOS>ATOM
      1 H           0.9532    0.0925   -0.0519 H       1  UNL1        0.0230
      2 C           2.0477    0.0854   -0.0589 C.3     1  UNL1       -0.0653
      3 H           2.3941    1.0922   -0.3140 H       1  UNL1        0.0230
      4 H           2.3941   -0.1505    0.9526 H       1  UNL1        0.0230
      5 C           2.5643   -0.9335   -1.0587 C.3     1  UNL1       -0.0559
      6 H           2.1809   -1.9269   -0.7968 H       1  UNL1        0.0263
      7 H           2.1808   -0.6906   -2.0567 H       1  UNL1        0.0263
      8 C           4.0918   -0.9536   -1.0783 C.3     1  UNL1       -0.0533
      9 H           4.4693    0.0435   -1.3353 H       1  UNL1        0.0265
     10 H           4.4693   -1.1943   -0.0773 H       1  UNL1        0.0265
     11 C           4.6160   -1.9752   -2.0837 C.3     1  UNL1       -0.0533
     12 H           4.2396   -2.9725   -1.8260 H       1  UNL1        0.0265
     13 H           4.2373   -1.7353   -3.0845 H       1  UNL1        0.0265
     14 C           6.1435   -1.9939   -2.1048 C.3     1  UNL1       -0.0559
     15 H           6.5258   -0.9999   -2.3661 H       1  UNL1        0.0263
     16 H           6.5281   -2.2373   -1.1074 H       1  UNL1        0.0263
     17 C           6.6600   -3.0114   -3.1061 C.3     1  UNL1       -0.0653
     18 H           6.3148   -4.0188   -2.8516 H       1  UNL1        0.0230
     19 H           6.3125   -2.7749   -4.1170 H       1  UNL1        0.0230
     20 H           7.7545   -3.0175   -3.1141 H       1  UNL1        0.0230
@<TRIPOS>BOND
     1     1     2    1
     2     2     3    1
     3     2     4    1
     4     2     5    1
     5     5     6    1
     6     5     7    1
     7     5     8    1
     8     8     9    1
     9     8    10    1
    10     8    11    1
    11    11    12    1
    12    11    13    1
    13    11    14    1
    14    14    15    1
    15    14    16    1
    16    14    17    1
    17    17    18    1
    18    17    19    1
    19    17    20    1
