@<TRIPOS>MOLECULE
input/solvents/pdb/hexane.pdb
 20 19 0 0 0
SMALL
GASTEIGER

@<TRIPOS>ATOM
      1 H           0.8606    0.0698    0.0117 H       1  UNL1        0.0230
      2 C           1.9551    0.0626    0.0048 C.3     1  UNL1       -0.0653
      3 H           2.3015    1.0692   -0.2515 H       1  UNL1        0.0230
      4 H           2.3015   -0.1720    1.0165 H       1  UNL1        0.0230
      5 C           2.4717   -0.9574   -0.9939 C.3     1  UNL1       -0.0559
      6 H           2.0882   -1.9505   -0.7308 H       1  UNL1        0.0263
      7 H           2.0882   -0.7157   -1.9922 H       1  UNL1        0.0263
      8 C           3.9992   -0.9775   -1.0135 C.3     1  UNL1       -0.0533
      9 H           4.3767    0.0192   -1.2716 H       1  UNL1        0.0265
     10 H           4.3767   -1.2171   -0.0122 H       1  UNL1        0.0265
     11 C           4.5233   -2.0004   -2.0177 C.3     1  UNL1       -0.0533
     12 H           4.1447   -2.9969   -1.7604 H       1  UNL1        0.0265
     13 H           4.1470   -1.7600   -3.0192 H       1  UNL1        0.0265
     14 C           6.0508   -2.0219   -2.0358 C.3     1  UNL1       -0.0559
     15 H           6.4355   -1.0287   -2.2967 H       1  UNL1        0.0263
     16 H           6.4331   -2.2658   -1.0377 H       1  UNL1        0.0263
     17 C           6.5674   -3.0406   -3.0359 C.3     1  UNL1       -0.0653
     18 H           6.2198   -4.0473   -2.7819 H       1  UNL1        0.0230
     19 H           6.2222   -2.8036   -4.0475 H       1  UNL1        0.0230
     20 H           7.6619   -3.0487   -3.0419 H       1  UNL1        0.0230
@<TRIPOS>BOND
     1     1     2    1
     2     2     3    1
     3     2     4    1
     4     2     5    1
     5     5     6    1
     6     5     7    1
     7     5     8    1
     8     8     9    1
     9     8    10    1
    10     8    11    1
    11    11    12    1
    12    11    13    1
    13    11    14    1
    14    14    15    1
    15    14    16    1
    16    14    17    1
    17    17    18    1
    18    17    19    1
    19    17    20    1
