@<TRIPOS>MOLECULE
input_data/solvent_pdbs/hexane.pdb
   20    19     1     0     0
SMALL
bcc


@<TRIPOS>ATOM
      1 H            0.8770    -0.0480    -0.0000 hc         1 UNL       0.032700
      2 C            1.9720    -0.0520     0.0090 c3         1 UNL      -0.092100
      3 H1           2.3180    -0.6540    -0.8380 hc         1 UNL       0.032700
      4 H2           2.3180     0.9770    -0.1370 hc         1 UNL       0.032700
      5 C1           2.4880    -0.6160     1.3210 c3         1 UNL      -0.080400
      6 H3           2.1050    -0.0120     2.1520 hc         1 UNL       0.038700
      7 H4           2.1050    -1.6340     1.4550 hc         1 UNL       0.038700
      8 C2           4.0160    -0.6270     1.3460 c3         1 UNL      -0.079400
      9 H5           4.3930    -1.2290     0.5110 hc         1 UNL       0.038700
     10 H6           4.3930     0.3930     1.2060 hc         1 UNL       0.038700
     11 C3           4.5400    -1.1910     2.6640 c3         1 UNL      -0.079400
     12 H7           4.1630    -0.5880     3.4990 hc         1 UNL       0.038700
     13 H8           4.1610    -2.2100     2.8050 hc         1 UNL       0.038700
     14 C4           6.0670    -1.2040     2.6890 c3         1 UNL      -0.080400
     15 H9           6.4490    -1.8090     1.8590 hc         1 UNL       0.038700
     16 H10          6.4520    -0.1860     2.5530 hc         1 UNL       0.038700
     17 C5           6.5840    -1.7660     4.0010 c3         1 UNL      -0.092100
     18 H11          6.2390    -1.1620     4.8470 hc         1 UNL       0.032700
     19 H12          6.2360    -2.7930     4.1490 hc         1 UNL       0.032700
     20 H13          7.6780    -1.7710     4.0100 hc         1 UNL       0.032700
@<TRIPOS>BOND
     1     1     2 1   
     2     2     3 1   
     3     2     4 1   
     4     2     5 1   
     5     5     6 1   
     6     5     7 1   
     7     5     8 1   
     8     8     9 1   
     9     8    10 1   
    10     8    11 1   
    11    11    12 1   
    12    11    13 1   
    13    11    14 1   
    14    14    15 1   
    15    14    16 1   
    16    14    17 1   
    17    17    18 1   
    18    17    19 1   
    19    17    20 1   
@<TRIPOS>SUBSTRUCTURE
     1 UNL         1 TEMP              0 ****  ****    0 ROOT
