@<TRIPOS>MOLECULE
input/solvents/pdb/hexane.pdb
   20    19     1     0     0
SMALL
bcc


@<TRIPOS>ATOM
      1 H            0.9970     0.0520     0.0530 hc         1 UNL       0.032700
      2 C            2.0920     0.0610     0.0480 c3         1 UNL      -0.092100
      3 H1           2.4380    -0.0000     1.0850 hc         1 UNL       0.032700
      4 H2           2.4380    -0.8320    -0.4820 hc         1 UNL       0.032700
      5 C1           2.6080     1.3220    -0.6210 c3         1 UNL      -0.080400
      6 H3           2.2250     1.3730    -1.6470 hc         1 UNL       0.038700
      7 H4           2.2250     2.2000    -0.0870 hc         1 UNL       0.038700
      8 C2           4.1360     1.3470    -0.6340 c3         1 UNL      -0.079400
      9 H5           4.5130     1.2900     0.3940 hc         1 UNL       0.038700
     10 H6           4.5130     0.4660    -1.1660 hc         1 UNL       0.038700
     11 C3           4.6600     2.6140    -1.3040 c3         1 UNL      -0.079400
     12 H7           4.2810     2.6710    -2.3310 hc         1 UNL       0.038700
     13 H8           4.2840     3.4950    -0.7710 hc         1 UNL       0.038700
     14 C4           6.1880     2.6380    -1.3190 c3         1 UNL      -0.080400
     15 H9           6.5720     2.5850    -0.2930 hc         1 UNL       0.038700
     16 H10          6.5700     1.7610    -1.8540 hc         1 UNL       0.038700
     17 C5           6.7040     3.9000    -1.9860 c3         1 UNL      -0.092100
     18 H11          6.3560     3.9630    -3.0220 hc         1 UNL       0.032700
     19 H12          6.3590     4.7920    -1.4530 hc         1 UNL       0.032700
     20 H13          7.7990     3.9080    -1.9920 hc         1 UNL       0.032700
@<TRIPOS>BOND
     1     1     2 1   
     2     2     3 1   
     3     2     4 1   
     4     2     5 1   
     5     5     6 1   
     6     5     7 1   
     7     5     8 1   
     8     8     9 1   
     9     8    10 1   
    10     8    11 1   
    11    11    12 1   
    12    11    13 1   
    13    11    14 1   
    14    14    15 1   
    15    14    16 1   
    16    14    17 1   
    17    17    18 1   
    18    17    19 1   
    19    17    20 1   
@<TRIPOS>SUBSTRUCTURE
     1 UNL         1 TEMP              0 ****  ****    0 ROOT
