@<TRIPOS>MOLECULE
input/solvents/pdb/hexane.pdb
   20    19     1     0     0
SMALL
bcc


@<TRIPOS>ATOM
      1 H            1.0070     0.0340     0.0360 hc         1 UNL       0.032700
      2 C            2.1010     0.0410     0.0430 c3         1 UNL      -0.092100
      3 H1           2.4480    -0.9610     0.3150 hc         1 UNL       0.032700
      4 H2           2.4480     0.2590    -0.9730 hc         1 UNL       0.032700
      5 C1           2.6180     1.0770     1.0250 c3         1 UNL      -0.080400
      6 H3           2.2340     2.0660     0.7460 hc         1 UNL       0.038700
      7 H4           2.2340     0.8520     2.0270 hc         1 UNL       0.038700
      8 C2           4.1450     1.0970     1.0440 c3         1 UNL      -0.079400
      9 H5           4.5230     0.1050     1.3180 hc         1 UNL       0.038700
     10 H6           4.5230     1.3210     0.0390 hc         1 UNL       0.038700
     11 C3           4.6700     2.1360     2.0320 c3         1 UNL      -0.079400
     12 H7           4.2910     3.1290     1.7580 hc         1 UNL       0.038700
     13 H8           4.2930     1.9120     3.0370 hc         1 UNL       0.038700
     14 C4           6.1970     2.1580     2.0490 c3         1 UNL      -0.080400
     15 H9           6.5820     1.1690     2.3260 hc         1 UNL       0.038700
     16 H10          6.5790     2.3860     1.0480 hc         1 UNL       0.038700
     17 C5           6.7140     3.1930     3.0330 c3         1 UNL      -0.092100
     18 H11          6.3660     4.1950     2.7630 hc         1 UNL       0.032700
     19 H12          6.3680     2.9720     4.0480 hc         1 UNL       0.032700
     20 H13          7.8080     3.2010     3.0390 hc         1 UNL       0.032700
@<TRIPOS>BOND
     1     1     2 1   
     2     2     3 1   
     3     2     4 1   
     4     2     5 1   
     5     5     6 1   
     6     5     7 1   
     7     5     8 1   
     8     8     9 1   
     9     8    10 1   
    10     8    11 1   
    11    11    12 1   
    12    11    13 1   
    13    11    14 1   
    14    14    15 1   
    15    14    16 1   
    16    14    17 1   
    17    17    18 1   
    18    17    19 1   
    19    17    20 1   
@<TRIPOS>SUBSTRUCTURE
     1 UNL         1 TEMP              0 ****  ****    0 ROOT
