@<TRIPOS>MOLECULE
input/solvents/pdb/hexane.pdb
   20    19     1     0     0
SMALL
bcc


@<TRIPOS>ATOM
      1 H            1.0300    -0.0660    -0.0330 hc         1 UNL       0.032700
      2 C            2.1250    -0.0640    -0.0230 c3         1 UNL      -0.092100
      3 H1           2.4710    -1.0280    -0.4110 hc         1 UNL       0.032700
      4 H2           2.4710     0.7230    -0.7010 hc         1 UNL       0.032700
      5 C1           2.6410     0.1690     1.3850 c3         1 UNL      -0.080400
      6 H3           2.2580     1.1250     1.7600 hc         1 UNL       0.038700
      7 H4           2.2580    -0.6160     2.0480 hc         1 UNL       0.038700
      8 C2           4.1690     0.1730     1.4130 c3         1 UNL      -0.079400
      9 H5           4.5460    -0.7830     1.0320 hc         1 UNL       0.038700
     10 H6           4.5460     0.9580     0.7460 hc         1 UNL       0.038700
     11 C3           4.6930     0.4060     2.8270 c3         1 UNL      -0.079400
     12 H7           4.3140     1.3620     3.2080 hc         1 UNL       0.038700
     13 H8           4.3170    -0.3800     3.4930 hc         1 UNL       0.038700
     14 C4           6.2210     0.4120     2.8550 c3         1 UNL      -0.080400
     15 H9           6.6050    -0.5430     2.4780 hc         1 UNL       0.038700
     16 H10          6.6030     1.1990     2.1930 hc         1 UNL       0.038700
     17 C5           6.7370     0.6430     4.2630 c3         1 UNL      -0.092100
     18 H11          6.3900     1.6060     4.6530 hc         1 UNL       0.032700
     19 H12          6.3920    -0.1450     4.9400 hc         1 UNL       0.032700
     20 H13          7.8320     0.6460     4.2730 hc         1 UNL       0.032700
@<TRIPOS>BOND
     1     1     2 1   
     2     2     3 1   
     3     2     4 1   
     4     2     5 1   
     5     5     6 1   
     6     5     7 1   
     7     5     8 1   
     8     8     9 1   
     9     8    10 1   
    10     8    11 1   
    11    11    12 1   
    12    11    13 1   
    13    11    14 1   
    14    14    15 1   
    15    14    16 1   
    16    14    17 1   
    17    17    18 1   
    18    17    19 1   
    19    17    20 1   
@<TRIPOS>SUBSTRUCTURE
     1 UNL         1 TEMP              0 ****  ****    0 ROOT
