@<TRIPOS>MOLECULE
input/solvents/pdb/hexane.pdb
   20    19     1     0     0
SMALL
bcc


@<TRIPOS>ATOM
      1 H            0.9530     0.0920    -0.0520 hc         1 UNL       0.032700
      2 C            2.0480     0.0850    -0.0590 c3         1 UNL      -0.092100
      3 H1           2.3940     1.0920    -0.3140 hc         1 UNL       0.032700
      4 H2           2.3940    -0.1500     0.9530 hc         1 UNL       0.032700
      5 C1           2.5640    -0.9330    -1.0590 c3         1 UNL      -0.080400
      6 H3           2.1810    -1.9270    -0.7970 hc         1 UNL       0.038700
      7 H4           2.1810    -0.6910    -2.0570 hc         1 UNL       0.038700
      8 C2           4.0920    -0.9540    -1.0780 c3         1 UNL      -0.079400
      9 H5           4.4690     0.0430    -1.3350 hc         1 UNL       0.038700
     10 H6           4.4690    -1.1940    -0.0770 hc         1 UNL       0.038700
     11 C3           4.6160    -1.9750    -2.0840 c3         1 UNL      -0.079400
     12 H7           4.2400    -2.9730    -1.8260 hc         1 UNL       0.038700
     13 H8           4.2370    -1.7350    -3.0840 hc         1 UNL       0.038700
     14 C4           6.1440    -1.9940    -2.1050 c3         1 UNL      -0.080400
     15 H9           6.5260    -1.0000    -2.3660 hc         1 UNL       0.038700
     16 H10          6.5280    -2.2370    -1.1070 hc         1 UNL       0.038700
     17 C5           6.6600    -3.0110    -3.1060 c3         1 UNL      -0.092100
     18 H11          6.3150    -4.0190    -2.8520 hc         1 UNL       0.032700
     19 H12          6.3120    -2.7750    -4.1170 hc         1 UNL       0.032700
     20 H13          7.7550    -3.0180    -3.1140 hc         1 UNL       0.032700
@<TRIPOS>BOND
     1     1     2 1   
     2     2     3 1   
     3     2     4 1   
     4     2     5 1   
     5     5     6 1   
     6     5     7 1   
     7     5     8 1   
     8     8     9 1   
     9     8    10 1   
    10     8    11 1   
    11    11    12 1   
    12    11    13 1   
    13    11    14 1   
    14    14    15 1   
    15    14    16 1   
    16    14    17 1   
    17    17    18 1   
    18    17    19 1   
    19    17    20 1   
@<TRIPOS>SUBSTRUCTURE
     1 UNL         1 TEMP              0 ****  ****    0 ROOT
