@<TRIPOS>MOLECULE
input/solvents/pdb/hexane.pdb
   20    19     1     0     0
SMALL
bcc


@<TRIPOS>ATOM
      1 H            1.0020     0.0410     0.0330 hc         1 UNL       0.032700
      2 C            2.0970     0.0490     0.0390 c3         1 UNL      -0.092100
      3 H1           2.4430    -0.8860     0.4920 hc         1 UNL       0.032700
      4 H2           2.4430     0.0760    -1.0000 hc         1 UNL       0.032700
      5 C1           2.6130     1.2490     0.8120 c3         1 UNL      -0.080400
      6 H3           2.2300     2.1690     0.3550 hc         1 UNL       0.038700
      7 H4           2.2300     1.2120     1.8390 hc         1 UNL       0.038700
      8 C2           4.1410     1.2720     0.8280 c3         1 UNL      -0.079400
      9 H5           4.5180     0.3480     1.2800 hc         1 UNL       0.038700
     10 H6           4.5180     1.3060    -0.2020 hc         1 UNL       0.038700
     11 C3           4.6650     2.4760     1.6060 c3         1 UNL      -0.079400
     12 H7           4.2860     3.4010     1.1540 hc         1 UNL       0.038700
     13 H8           4.2880     2.4420     2.6350 hc         1 UNL       0.038700
     14 C4           6.1920     2.5010     1.6190 c3         1 UNL      -0.080400
     15 H9           6.5770     1.5800     2.0740 hc         1 UNL       0.038700
     16 H10          6.5750     2.5390     0.5930 hc         1 UNL       0.038700
     17 C5           6.7090     3.6990     2.3950 c3         1 UNL      -0.092100
     18 H11          6.3610     4.6350     1.9440 hc         1 UNL       0.032700
     19 H12          6.3640     3.6700     3.4330 hc         1 UNL       0.032700
     20 H13          7.8030     3.7080     2.3990 hc         1 UNL       0.032700
@<TRIPOS>BOND
     1     1     2 1   
     2     2     3 1   
     3     2     4 1   
     4     2     5 1   
     5     5     6 1   
     6     5     7 1   
     7     5     8 1   
     8     8     9 1   
     9     8    10 1   
    10     8    11 1   
    11    11    12 1   
    12    11    13 1   
    13    11    14 1   
    14    14    15 1   
    15    14    16 1   
    16    14    17 1   
    17    17    18 1   
    18    17    19 1   
    19    17    20 1   
@<TRIPOS>SUBSTRUCTURE
     1 UNL         1 TEMP              0 ****  ****    0 ROOT
