@<TRIPOS>MOLECULE
input/solvents/pdb/hexane.pdb
   20    19     1     0     0
SMALL
bcc


@<TRIPOS>ATOM
      1 H            0.8610     0.0700     0.0120 hc         1 UNL       0.032700
      2 C            1.9550     0.0630     0.0050 c3         1 UNL      -0.092100
      3 H1           2.3010     1.0690    -0.2520 hc         1 UNL       0.032700
      4 H2           2.3010    -0.1720     1.0160 hc         1 UNL       0.032700
      5 C1           2.4720    -0.9570    -0.9940 c3         1 UNL      -0.080400
      6 H3           2.0880    -1.9500    -0.7310 hc         1 UNL       0.038700
      7 H4           2.0880    -0.7160    -1.9920 hc         1 UNL       0.038700
      8 C2           3.9990    -0.9780    -1.0140 c3         1 UNL      -0.079400
      9 H5           4.3770     0.0190    -1.2720 hc         1 UNL       0.038700
     10 H6           4.3770    -1.2170    -0.0120 hc         1 UNL       0.038700
     11 C3           4.5230    -2.0000    -2.0180 c3         1 UNL      -0.079400
     12 H7           4.1450    -2.9970    -1.7600 hc         1 UNL       0.038700
     13 H8           4.1470    -1.7600    -3.0190 hc         1 UNL       0.038700
     14 C4           6.0510    -2.0220    -2.0360 c3         1 UNL      -0.080400
     15 H9           6.4360    -1.0290    -2.2970 hc         1 UNL       0.038700
     16 H10          6.4330    -2.2660    -1.0380 hc         1 UNL       0.038700
     17 C5           6.5670    -3.0410    -3.0360 c3         1 UNL      -0.092100
     18 H11          6.2200    -4.0470    -2.7820 hc         1 UNL       0.032700
     19 H12          6.2220    -2.8040    -4.0480 hc         1 UNL       0.032700
     20 H13          7.6620    -3.0490    -3.0420 hc         1 UNL       0.032700
@<TRIPOS>BOND
     1     1     2 1   
     2     2     3 1   
     3     2     4 1   
     4     2     5 1   
     5     5     6 1   
     6     5     7 1   
     7     5     8 1   
     8     8     9 1   
     9     8    10 1   
    10     8    11 1   
    11    11    12 1   
    12    11    13 1   
    13    11    14 1   
    14    14    15 1   
    15    14    16 1   
    16    14    17 1   
    17    17    18 1   
    18    17    19 1   
    19    17    20 1   
@<TRIPOS>SUBSTRUCTURE
     1 UNL         1 TEMP              0 ****  ****    0 ROOT
