@<TRIPOS>MOLECULE
input/solvents/pdb/hexane.pdb
   20    19     1     0     0
SMALL
bcc


@<TRIPOS>ATOM
      1 H            0.9660     0.0710     0.0580 hc         1 UNL       0.032700
      2 C            2.0610     0.0780     0.0510 c3         1 UNL      -0.092100
      3 H1           2.4070     0.3410     1.0560 hc         1 UNL       0.032700
      4 H2           2.4070    -0.9350    -0.1770 hc         1 UNL       0.032700
      5 C1           2.5780     1.0700    -0.9760 c3         1 UNL      -0.080400
      6 H3           2.1940     0.8010    -1.9670 hc         1 UNL       0.038700
      7 H4           2.1940     2.0700    -0.7410 hc         1 UNL       0.038700
      8 C2           4.1050     1.0900    -0.9960 c3         1 UNL      -0.079400
      9 H5           4.4830     1.3540    -0.0010 hc         1 UNL       0.038700
     10 H6           4.4820     0.0870    -1.2290 hc         1 UNL       0.038700
     11 C3           4.6290     2.0870    -2.0250 c3         1 UNL      -0.079400
     12 H7           4.2500     1.8230    -3.0200 hc         1 UNL       0.038700
     13 H8           4.2530     3.0900    -1.7920 hc         1 UNL       0.038700
     14 C4           6.1570     2.1050    -2.0470 c3         1 UNL      -0.080400
     15 H9           6.5410     2.3730    -1.0550 hc         1 UNL       0.038700
     16 H10          6.5390     1.1050    -2.2840 hc         1 UNL       0.038700
     17 C5           6.6730     3.0990    -3.0720 c3         1 UNL      -0.092100
     18 H11          6.3260     2.8380    -4.0770 hc         1 UNL       0.032700
     19 H12          6.3280     4.1120    -2.8420 hc         1 UNL       0.032700
     20 H13          7.7680     3.1040    -3.0800 hc         1 UNL       0.032700
@<TRIPOS>BOND
     1     1     2 1   
     2     2     3 1   
     3     2     4 1   
     4     2     5 1   
     5     5     6 1   
     6     5     7 1   
     7     5     8 1   
     8     8     9 1   
     9     8    10 1   
    10     8    11 1   
    11    11    12 1   
    12    11    13 1   
    13    11    14 1   
    14    14    15 1   
    15    14    16 1   
    16    14    17 1   
    17    17    18 1   
    18    17    19 1   
    19    17    20 1   
@<TRIPOS>SUBSTRUCTURE
     1 UNL         1 TEMP              0 ****  ****    0 ROOT
