@<TRIPOS>MOLECULE
input_data/solvent_pdbs/hexane.pdb
   20    19     1     0     0
SMALL
bcc


@<TRIPOS>ATOM
      1 H            0.8520    -0.0130    -0.0110 hc         1 UNL       0.032700
      2 C            1.9470    -0.0030    -0.0130 c3         1 UNL      -0.092100
      3 H1           2.2930    -0.3660     0.9610 hc         1 UNL       0.032700
      4 H2           2.2930    -0.7010    -0.7820 hc         1 UNL       0.032700
      5 C1           2.4630     1.3980    -0.2830 c3         1 UNL      -0.080400
      6 H3           2.0800     1.7480    -1.2490 hc         1 UNL       0.038700
      7 H4           2.0800     2.0810     0.4850 hc         1 UNL       0.038700
      8 C2           3.9910     1.4260    -0.2880 c3         1 UNL      -0.079400
      9 H5           4.3690     1.0730     0.6790 hc         1 UNL       0.038700
     10 H6           4.3690     0.7370    -1.0530 hc         1 UNL       0.038700
     11 C3           4.5150     2.8330    -0.5610 c3         1 UNL      -0.079400
     12 H7           4.1360     3.1860    -1.5280 hc         1 UNL       0.038700
     13 H8           4.1390     3.5220     0.2050 hc         1 UNL       0.038700
     14 C4           6.0430     2.8600    -0.5680 c3         1 UNL      -0.080400
     15 H9           6.4270     2.5120     0.3980 hc         1 UNL       0.038700
     16 H10          6.4250     2.1760    -1.3350 hc         1 UNL       0.038700
     17 C5           6.5590     4.2620    -0.8400 c3         1 UNL      -0.092100
     18 H11          6.2120     4.6230    -1.8130 hc         1 UNL       0.032700
     19 H12          6.2140     4.9600    -0.0710 hc         1 UNL       0.032700
     20 H13          7.6540     4.2710    -0.8430 hc         1 UNL       0.032700
@<TRIPOS>BOND
     1     1     2 1   
     2     2     3 1   
     3     2     4 1   
     4     2     5 1   
     5     5     6 1   
     6     5     7 1   
     7     5     8 1   
     8     8     9 1   
     9     8    10 1   
    10     8    11 1   
    11    11    12 1   
    12    11    13 1   
    13    11    14 1   
    14    14    15 1   
    15    14    16 1   
    16    14    17 1   
    17    17    18 1   
    18    17    19 1   
    19    17    20 1   
@<TRIPOS>SUBSTRUCTURE
     1 UNL         1 TEMP              0 ****  ****    0 ROOT
