@<TRIPOS>MOLECULE
input/solvents/pdb/hexane.pdb
   20    19     1     0     0
SMALL
bcc


@<TRIPOS>ATOM
      1 H            0.8840    -0.0760    -0.0750 hc         1 UNL       0.032700
      2 C            1.9790    -0.0720    -0.0660 c3         1 UNL      -0.092100
      3 H1           2.3250    -1.1030    -0.1910 hc         1 UNL       0.032700
      4 H2           2.3250     0.5130    -0.9250 hc         1 UNL       0.032700
      5 C1           2.4960     0.5190     1.2340 c3         1 UNL      -0.080400
      6 H3           2.1120     1.5400     1.3470 hc         1 UNL       0.038700
      7 H4           2.1120    -0.0680     2.0770 hc         1 UNL       0.038700
      8 C2           4.0230     0.5300     1.2590 c3         1 UNL      -0.079400
      9 H5           4.4010    -0.4920     1.1400 hc         1 UNL       0.038700
     10 H6           4.4010     1.1150     0.4120 hc         1 UNL       0.038700
     11 C3           4.5470     1.1210     2.5650 c3         1 UNL      -0.079400
     12 H7           4.1710     2.1440     2.6840 hc         1 UNL       0.038700
     13 H8           4.1690     0.5370     3.4120 hc         1 UNL       0.038700
     14 C4           6.0750     1.1310     2.5910 c3         1 UNL      -0.080400
     15 H9           6.4570     0.1100     2.4770 hc         1 UNL       0.038700
     16 H10          6.4590     1.7170     1.7490 hc         1 UNL       0.038700
     17 C5           6.5910     1.7200     3.8920 c3         1 UNL      -0.092100
     18 H11          6.2460     2.7510     4.0180 hc         1 UNL       0.032700
     19 H12          6.2440     1.1350     4.7500 hc         1 UNL       0.032700
     20 H13          7.6860     1.7220     3.9020 hc         1 UNL       0.032700
@<TRIPOS>BOND
     1     1     2 1   
     2     2     3 1   
     3     2     4 1   
     4     2     5 1   
     5     5     6 1   
     6     5     7 1   
     7     5     8 1   
     8     8     9 1   
     9     8    10 1   
    10     8    11 1   
    11    11    12 1   
    12    11    13 1   
    13    11    14 1   
    14    14    15 1   
    15    14    16 1   
    16    14    17 1   
    17    17    18 1   
    18    17    19 1   
    19    17    20 1   
@<TRIPOS>SUBSTRUCTURE
     1 UNL         1 TEMP              0 ****  ****    0 ROOT
