@<TRIPOS>MOLECULE
input/solvents/pdb/hexane.pdb
   20    19     1     0     0
SMALL
bcc


@<TRIPOS>ATOM
      1 H            0.9880     0.0870     0.0410 hc         1 UNL       0.032700
      2 C            2.0830     0.0810     0.0490 c3         1 UNL      -0.092100
      3 H1           2.4290    -0.2630    -0.9310 hc         1 UNL       0.032700
      4 H2           2.4290     1.1090     0.1940 hc         1 UNL       0.032700
      5 C1           2.5990    -0.8240     1.1530 c3         1 UNL      -0.080400
      6 H3           2.2160    -0.4750     2.1190 hc         1 UNL       0.038700
      7 H4           2.2160    -1.8400     1.0000 hc         1 UNL       0.038700
      8 C2           4.1270    -0.8420     1.1750 c3         1 UNL      -0.079400
      9 H5           4.5040    -1.1900     0.2060 hc         1 UNL       0.038700
     10 H6           4.5040     0.1770     1.3230 hc         1 UNL       0.038700
     11 C3           4.6510    -1.7490     2.2850 c3         1 UNL      -0.079400
     12 H7           4.2720    -1.4020     3.2540 hc         1 UNL       0.038700
     13 H8           4.2750    -2.7680     2.1360 hc         1 UNL       0.038700
     14 C4           6.1790    -1.7650     2.3080 c3         1 UNL      -0.080400
     15 H9           6.5630    -2.1150     1.3430 hc         1 UNL       0.038700
     16 H10          6.5610    -0.7490     2.4600 hc         1 UNL       0.038700
     17 C5           6.6950    -2.6690     3.4130 c3         1 UNL      -0.092100
     18 H11          6.3480    -2.3240     4.3930 hc         1 UNL       0.032700
     19 H12          6.3500    -3.6980     3.2690 hc         1 UNL       0.032700
     20 H13          7.7900    -2.6740     3.4220 hc         1 UNL       0.032700
@<TRIPOS>BOND
     1     1     2 1   
     2     2     3 1   
     3     2     4 1   
     4     2     5 1   
     5     5     6 1   
     6     5     7 1   
     7     5     8 1   
     8     8     9 1   
     9     8    10 1   
    10     8    11 1   
    11    11    12 1   
    12    11    13 1   
    13    11    14 1   
    14    14    15 1   
    15    14    16 1   
    16    14    17 1   
    17    17    18 1   
    18    17    19 1   
    19    17    20 1   
@<TRIPOS>SUBSTRUCTURE
     1 UNL         1 TEMP              0 ****  ****    0 ROOT
