@<TRIPOS>MOLECULE
input/solvents/pdb/hexane.pdb
   20    19     1     0     0
SMALL
bcc


@<TRIPOS>ATOM
      1 H            1.0130     0.1020     0.0070 hc         1 UNL       0.032700
      2 C            2.1080     0.0930     0.0110 c3         1 UNL      -0.092100
      3 H1           2.4540     0.1960    -1.0220 hc         1 UNL       0.032700
      4 H2           2.4540     0.9640     0.5780 hc         1 UNL       0.032700
      5 C1           2.6240    -1.1940     0.6280 c3         1 UNL      -0.080400
      6 H3           2.2410    -1.2870     1.6510 hc         1 UNL       0.038700
      7 H4           2.2410    -2.0500     0.0600 hc         1 UNL       0.038700
      8 C2           4.1520    -1.2200     0.6410 c3         1 UNL      -0.079400
      9 H5           4.5290    -1.1210    -0.3840 hc         1 UNL       0.038700
     10 H6           4.5290    -0.3600     1.2080 hc         1 UNL       0.038700
     11 C3           4.6760    -2.5130     1.2580 c3         1 UNL      -0.079400
     12 H7           4.3000    -2.6110     2.2840 hc         1 UNL       0.038700
     13 H8           4.2970    -3.3720     0.6920 hc         1 UNL       0.038700
     14 C4           6.2040    -2.5390     1.2690 c3         1 UNL      -0.080400
     15 H9           6.5860    -2.4460     0.2450 hc         1 UNL       0.038700
     16 H10          6.5880    -1.6840     1.8370 hc         1 UNL       0.038700
     17 C5           6.7200    -3.8270     1.8840 c3         1 UNL      -0.092100
     18 H11          6.3750    -3.9310     2.9180 hc         1 UNL       0.032700
     19 H12          6.3720    -4.6970     1.3170 hc         1 UNL       0.032700
     20 H13          7.8150    -3.8370     1.8870 hc         1 UNL       0.032700
@<TRIPOS>BOND
     1     1     2 1   
     2     2     3 1   
     3     2     4 1   
     4     2     5 1   
     5     5     6 1   
     6     5     7 1   
     7     5     8 1   
     8     8     9 1   
     9     8    10 1   
    10     8    11 1   
    11    11    12 1   
    12    11    13 1   
    13    11    14 1   
    14    14    15 1   
    15    14    16 1   
    16    14    17 1   
    17    17    18 1   
    18    17    19 1   
    19    17    20 1   
@<TRIPOS>SUBSTRUCTURE
     1 UNL         1 TEMP              0 ****  ****    0 ROOT
