@<TRIPOS>MOLECULE
input_data/solvent_pdbs/hexane.pdb
   20    19     1     0     0
SMALL
bcc


@<TRIPOS>ATOM
      1 H            0.9900    -0.0020     0.0650 hc         1 UNL       0.032700
      2 C            2.0840    -0.0090     0.0730 c3         1 UNL      -0.092100
      3 H1           2.4300    -0.2920    -0.9260 hc         1 UNL       0.032700
      4 H2           2.4300     1.0090     0.2800 hc         1 UNL       0.032700
      5 C1           2.6010    -0.9790     1.1200 c3         1 UNL      -0.080400
      6 H3           2.2170    -0.6890     2.1050 hc         1 UNL       0.038700
      7 H4           2.2170    -1.9830     0.9050 hc         1 UNL       0.038700
      8 C2           4.1280    -0.9980     1.1400 c3         1 UNL      -0.079400
      9 H5           4.5060    -1.2860     0.1520 hc         1 UNL       0.038700
     10 H6           4.5060     0.0100     1.3500 hc         1 UNL       0.038700
     11 C3           4.6520    -1.9710     2.1930 c3         1 UNL      -0.079400
     12 H7           4.2760    -1.6820     3.1820 hc         1 UNL       0.038700
     13 H8           4.2740    -2.9780     1.9850 hc         1 UNL       0.038700
     14 C4           6.1800    -1.9910     2.2120 c3         1 UNL      -0.080400
     15 H9           6.5620    -2.2840     1.2270 hc         1 UNL       0.038700
     16 H10          6.5640    -0.9870     2.4240 hc         1 UNL       0.038700
     17 C5           6.6960    -2.9600     3.2610 c3         1 UNL      -0.092100
     18 H11          6.3510    -2.6740     4.2600 hc         1 UNL       0.032700
     19 H12          6.3490    -3.9780     3.0560 hc         1 UNL       0.032700
     20 H13          7.7910    -2.9680     3.2670 hc         1 UNL       0.032700
@<TRIPOS>BOND
     1     1     2 1   
     2     2     3 1   
     3     2     4 1   
     4     2     5 1   
     5     5     6 1   
     6     5     7 1   
     7     5     8 1   
     8     8     9 1   
     9     8    10 1   
    10     8    11 1   
    11    11    12 1   
    12    11    13 1   
    13    11    14 1   
    14    14    15 1   
    15    14    16 1   
    16    14    17 1   
    17    17    18 1   
    18    17    19 1   
    19    17    20 1   
@<TRIPOS>SUBSTRUCTURE
     1 UNL         1 TEMP              0 ****  ****    0 ROOT
