@<TRIPOS>MOLECULE
input/solvents/pdb/hexane.pdb
   20    19     1     0     0
SMALL
bcc


@<TRIPOS>ATOM
      1 H            0.9750     0.0120    -0.0700 hc         1 UNL       0.032700
      2 C            2.0690     0.0200    -0.0750 c3         1 UNL      -0.092100
      3 H1           2.4160     0.0140     0.9630 hc         1 UNL       0.032700
      4 H2           2.4160    -0.9000    -0.5580 hc         1 UNL       0.032700
      5 C1           2.5860     1.2440    -0.8100 c3         1 UNL      -0.080400
      6 H3           2.2030     1.2400    -1.8380 hc         1 UNL       0.038700
      7 H4           2.2030     2.1490    -0.3250 hc         1 UNL       0.038700
      8 C2           4.1140     1.2680    -0.8250 c3         1 UNL      -0.079400
      9 H5           4.4910     1.2660     0.2050 hc         1 UNL       0.038700
     10 H6           4.4910     0.3590    -1.3090 hc         1 UNL       0.038700
     11 C3           4.6380     2.4980    -1.5610 c3         1 UNL      -0.079400
     12 H7           4.2590     2.5000    -2.5900 hc         1 UNL       0.038700
     13 H8           4.2610     3.4060    -1.0760 hc         1 UNL       0.038700
     14 C4           6.1650     2.5210    -1.5770 c3         1 UNL      -0.080400
     15 H9           6.5500     2.5220    -0.5510 hc         1 UNL       0.038700
     16 H10          6.5470     1.6160    -2.0650 hc         1 UNL       0.038700
     17 C5           6.6820     3.7450    -2.3110 c3         1 UNL      -0.092100
     18 H11          6.3340     3.7540    -3.3490 hc         1 UNL       0.032700
     19 H12          6.3370     4.6650    -1.8260 hc         1 UNL       0.032700
     20 H13          7.7760     3.7530    -2.3170 hc         1 UNL       0.032700
@<TRIPOS>BOND
     1     1     2 1   
     2     2     3 1   
     3     2     4 1   
     4     2     5 1   
     5     5     6 1   
     6     5     7 1   
     7     5     8 1   
     8     8     9 1   
     9     8    10 1   
    10     8    11 1   
    11    11    12 1   
    12    11    13 1   
    13    11    14 1   
    14    14    15 1   
    15    14    16 1   
    16    14    17 1   
    17    17    18 1   
    18    17    19 1   
    19    17    20 1   
@<TRIPOS>SUBSTRUCTURE
     1 UNL         1 TEMP              0 ****  ****    0 ROOT
