@<TRIPOS>MOLECULE
input_data/solvent_pdbs/hexane.pdb
   20    19     1     0     0
SMALL
bcc


@<TRIPOS>ATOM
      1 H            1.0210     0.0420    -0.0940 hc         1 UNL       0.032700
      2 C            2.1150     0.0360    -0.0860 c3         1 UNL      -0.092100
      3 H1           2.4610    -0.4390    -1.0090 hc         1 UNL       0.032700
      4 H2           2.4620     1.0750    -0.0840 hc         1 UNL       0.032700
      5 C1           2.6320    -0.7080     1.1330 c3         1 UNL      -0.080400
      6 H3           2.2480    -0.2290     2.0410 hc         1 UNL       0.038700
      7 H4           2.2480    -1.7350     1.1210 hc         1 UNL       0.038700
      8 C2           4.1590    -0.7230     1.1570 c3         1 UNL      -0.079400
      9 H5           4.5370    -1.1980     0.2430 hc         1 UNL       0.038700
     10 H6           4.5370     0.3070     1.1650 hc         1 UNL       0.038700
     11 C3           4.6830    -1.4720     2.3790 c3         1 UNL      -0.079400
     12 H7           4.3050    -0.9980     3.2920 hc         1 UNL       0.038700
     13 H8           4.3070    -2.5020     2.3690 hc         1 UNL       0.038700
     14 C4           6.2110    -1.4850     2.4040 c3         1 UNL      -0.080400
     15 H9           6.5960    -1.9620     1.4940 hc         1 UNL       0.038700
     16 H10          6.5930    -0.4570     2.4170 hc         1 UNL       0.038700
     17 C5           6.7270    -2.2310     3.6210 c3         1 UNL      -0.092100
     18 H11          6.3800    -1.7570     4.5450 hc         1 UNL       0.032700
     19 H12          6.3820    -3.2700     3.6170 hc         1 UNL       0.032700
     20 H13          7.8220    -2.2350     3.6300 hc         1 UNL       0.032700
@<TRIPOS>BOND
     1     1     2 1   
     2     2     3 1   
     3     2     4 1   
     4     2     5 1   
     5     5     6 1   
     6     5     7 1   
     7     5     8 1   
     8     8     9 1   
     9     8    10 1   
    10     8    11 1   
    11    11    12 1   
    12    11    13 1   
    13    11    14 1   
    14    14    15 1   
    15    14    16 1   
    16    14    17 1   
    17    17    18 1   
    18    17    19 1   
    19    17    20 1   
@<TRIPOS>SUBSTRUCTURE
     1 UNL         1 TEMP              0 ****  ****    0 ROOT
