@<TRIPOS>MOLECULE
input_data/solvent_pdbs/hexane.pdb
   20    19     1     0     0
SMALL
bcc


@<TRIPOS>ATOM
      1 H            0.9870    -0.0510    -0.0920 hc         1 UNL       0.032700
      2 C            2.0820    -0.0570    -0.0840 c3         1 UNL      -0.092100
      3 H1           2.4280    -0.5210    -1.0130 hc         1 UNL       0.032700
      4 H2           2.4280     0.9820    -0.0700 hc         1 UNL       0.032700
      5 C1           2.5990    -0.8160     1.1250 c3         1 UNL      -0.080400
      6 H3           2.2150    -0.3480     2.0400 hc         1 UNL       0.038700
      7 H4           2.2150    -1.8430     1.1010 hc         1 UNL       0.038700
      8 C2           4.1260    -0.8310     1.1490 c3         1 UNL      -0.079400
      9 H5           4.5030    -1.2950     0.2300 hc         1 UNL       0.038700
     10 H6           4.5030     0.1990     1.1700 hc         1 UNL       0.038700
     11 C3           4.6500    -1.5950     2.3620 c3         1 UNL      -0.079400
     12 H7           4.2710    -1.1320     3.2810 hc         1 UNL       0.038700
     13 H8           4.2740    -2.6240     2.3400 hc         1 UNL       0.038700
     14 C4           6.1780    -1.6080     2.3870 c3         1 UNL      -0.080400
     15 H9           6.5620    -2.0740     1.4720 hc         1 UNL       0.038700
     16 H10          6.5600    -0.5810     2.4130 hc         1 UNL       0.038700
     17 C5           6.6940    -2.3690     3.5950 c3         1 UNL      -0.092100
     18 H11          6.3470    -1.9070     4.5240 hc         1 UNL       0.032700
     19 H12          6.3490    -3.4080     3.5780 hc         1 UNL       0.032700
     20 H13          7.7890    -2.3730     3.6040 hc         1 UNL       0.032700
@<TRIPOS>BOND
     1     1     2 1   
     2     2     3 1   
     3     2     4 1   
     4     2     5 1   
     5     5     6 1   
     6     5     7 1   
     7     5     8 1   
     8     8     9 1   
     9     8    10 1   
    10     8    11 1   
    11    11    12 1   
    12    11    13 1   
    13    11    14 1   
    14    14    15 1   
    15    14    16 1   
    16    14    17 1   
    17    17    18 1   
    18    17    19 1   
    19    17    20 1   
@<TRIPOS>SUBSTRUCTURE
     1 UNL         1 TEMP              0 ****  ****    0 ROOT
