@<TRIPOS>MOLECULE
input_data/solvent_pdbs/hexane.pdb
   20    19     1     0     0
SMALL
bcc


@<TRIPOS>ATOM
      1 H            1.0100     0.0080    -0.0470 hc         1 UNL       0.032700
      2 C            2.1050     0.0130    -0.0560 c3         1 UNL      -0.092100
      3 H1           2.4510     0.5680     0.8220 hc         1 UNL       0.032700
      4 H2           2.4510    -1.0220     0.0350 hc         1 UNL       0.032700
      5 C1           2.6220     0.6460    -1.3350 c3         1 UNL      -0.080400
      6 H3           2.2380     0.0880    -2.1980 hc         1 UNL       0.038700
      7 H4           2.2380     1.6700    -1.4150 hc         1 UNL       0.038700
      8 C2           4.1490     0.6580    -1.3600 c3         1 UNL      -0.079400
      9 H5           4.5270     1.2150    -0.4940 hc         1 UNL       0.038700
     10 H6           4.5270    -0.3670    -1.2750 hc         1 UNL       0.038700
     11 C3           4.6730     1.2930    -2.6460 c3         1 UNL      -0.079400
     12 H7           4.2950     0.7370    -3.5120 hc         1 UNL       0.038700
     13 H8           4.2970     2.3190    -2.7300 hc         1 UNL       0.038700
     14 C4           6.2010     1.3030    -2.6720 c3         1 UNL      -0.080400
     15 H9           6.5850     1.8610    -1.8100 hc         1 UNL       0.038700
     16 H10          6.5830     0.2790    -2.5920 hc         1 UNL       0.038700
     17 C5           6.7170     1.9350    -3.9520 c3         1 UNL      -0.092100
     18 H11          6.3700     1.3790    -4.8290 hc         1 UNL       0.032700
     19 H12          6.3720     2.9700    -4.0430 hc         1 UNL       0.032700
     20 H13          7.8120     1.9380    -3.9620 hc         1 UNL       0.032700
@<TRIPOS>BOND
     1     1     2 1   
     2     2     3 1   
     3     2     4 1   
     4     2     5 1   
     5     5     6 1   
     6     5     7 1   
     7     5     8 1   
     8     8     9 1   
     9     8    10 1   
    10     8    11 1   
    11    11    12 1   
    12    11    13 1   
    13    11    14 1   
    14    14    15 1   
    15    14    16 1   
    16    14    17 1   
    17    17    18 1   
    18    17    19 1   
    19    17    20 1   
@<TRIPOS>SUBSTRUCTURE
     1 UNL         1 TEMP              0 ****  ****    0 ROOT
