@<TRIPOS>MOLECULE
input/solvents/pdb/hexane.pdb
   20    19     1     0     0
SMALL
bcc


@<TRIPOS>ATOM
      1 H            0.8760    -0.0560    -0.0420 hc         1 UNL       0.032700
      2 C            1.9710    -0.0480    -0.0480 c3         1 UNL      -0.092100
      3 H1           2.3170    -0.0090     0.9900 hc         1 UNL       0.032700
      4 H2           2.3170    -0.9870    -0.4900 hc         1 UNL       0.032700
      5 C1           2.4870     1.1440    -0.8340 c3         1 UNL      -0.080400
      6 H3           2.1040     1.0960    -1.8600 hc         1 UNL       0.038700
      7 H4           2.1040     2.0690    -0.3870 hc         1 UNL       0.038700
      8 C2           4.0150     1.1670    -0.8500 c3         1 UNL      -0.079400
      9 H5           4.3930     1.2090     0.1790 hc         1 UNL       0.038700
     10 H6           4.3930     0.2390    -1.2950 hc         1 UNL       0.038700
     11 C3           4.5390     2.3650    -1.6380 c3         1 UNL      -0.079400
     12 H7           4.1630     2.3220    -2.6670 hc         1 UNL       0.038700
     13 H8           4.1600     3.2930    -1.1930 hc         1 UNL       0.038700
     14 C4           6.0670     2.3890    -1.6510 c3         1 UNL      -0.080400
     15 H9           6.4490     2.4360    -0.6250 hc         1 UNL       0.038700
     16 H10          6.4510     1.4650    -2.0990 hc         1 UNL       0.038700
     17 C5           6.5830     3.5810    -2.4360 c3         1 UNL      -0.092100
     18 H11          6.2380     3.5440    -3.4750 hc         1 UNL       0.032700
     19 H12          6.2360     4.5200    -1.9930 hc         1 UNL       0.032700
     20 H13          7.6780     3.5910    -2.4410 hc         1 UNL       0.032700
@<TRIPOS>BOND
     1     1     2 1   
     2     2     3 1   
     3     2     4 1   
     4     2     5 1   
     5     5     6 1   
     6     5     7 1   
     7     5     8 1   
     8     8     9 1   
     9     8    10 1   
    10     8    11 1   
    11    11    12 1   
    12    11    13 1   
    13    11    14 1   
    14    14    15 1   
    15    14    16 1   
    16    14    17 1   
    17    17    18 1   
    18    17    19 1   
    19    17    20 1   
@<TRIPOS>SUBSTRUCTURE
     1 UNL         1 TEMP              0 ****  ****    0 ROOT
