@<TRIPOS>MOLECULE
input/solvents/pdb/hexane.pdb
   20    19     1     0     0
SMALL
bcc


@<TRIPOS>ATOM
      1 H            1.0040     0.0920    -0.0580 hc         1 UNL       0.032700
      2 C            2.0980     0.0820    -0.0580 c3         1 UNL      -0.092100
      3 H1           2.4440     0.6100    -0.9520 hc         1 UNL       0.032700
      4 H2           2.4440     0.6330     0.8220 hc         1 UNL       0.032700
      5 C1           2.6150    -1.3450    -0.0390 c3         1 UNL      -0.080400
      6 H3           2.2310    -1.8590     0.8500 hc         1 UNL       0.038700
      7 H4           2.2310    -1.8830    -0.9150 hc         1 UNL       0.038700
      8 C2           4.1420    -1.3730    -0.0390 c3         1 UNL      -0.079400
      9 H5           4.5200    -0.8560    -0.9290 hc         1 UNL       0.038700
     10 H6           4.5200    -0.8300     0.8360 hc         1 UNL       0.038700
     11 C3           4.6660    -2.8070    -0.0180 c3         1 UNL      -0.079400
     12 H7           4.2880    -3.3250     0.8710 hc         1 UNL       0.038700
     13 H8           4.2900    -3.3490    -0.8940 hc         1 UNL       0.038700
     14 C4           6.1940    -2.8350    -0.0160 c3         1 UNL      -0.080400
     15 H9           6.5780    -2.3210    -0.9050 hc         1 UNL       0.038700
     16 H10          6.5760    -2.2970     0.8600 hc         1 UNL       0.038700
     17 C5           6.7100    -4.2620     0.0050 c3         1 UNL      -0.092100
     18 H11          6.3630    -4.7900     0.8990 hc         1 UNL       0.032700
     19 H12          6.3650    -4.8140    -0.8750 hc         1 UNL       0.032700
     20 H13          7.8050    -4.2720     0.0060 hc         1 UNL       0.032700
@<TRIPOS>BOND
     1     1     2 1   
     2     2     3 1   
     3     2     4 1   
     4     2     5 1   
     5     5     6 1   
     6     5     7 1   
     7     5     8 1   
     8     8     9 1   
     9     8    10 1   
    10     8    11 1   
    11    11    12 1   
    12    11    13 1   
    13    11    14 1   
    14    14    15 1   
    15    14    16 1   
    16    14    17 1   
    17    17    18 1   
    18    17    19 1   
    19    17    20 1   
@<TRIPOS>SUBSTRUCTURE
     1 UNL         1 TEMP              0 ****  ****    0 ROOT
